<?xml version="1.0" encoding="UTF-8"?>

<!-- generated on 10/31/19 16:27:43 by Eclipse SUMO netedit Version v1_3_1+0555-c0a1b3e52e
<configuration xmlns:xsi="http://www.w3.org/2001/XMLSchema-instance" xsi:noNamespaceSchemaLocation="http://sumo.dlr.de/xsd/netconvertConfiguration.xsd">

    <input>
        <sumo-net-file value="C:\Users\DellA003\surfdrive\PhD\PhD%20Project\Stuff\Softwares\sim2apl-sumo\src\main\resources\debilt\debilt.net.xml"/>
    </input>

    <output>
        <output-file value="C:\Users\DellA003\surfdrive\PhD\PhD%20Project\Stuff\Softwares\sim2apl-sumo\src\main\resources\debilt\debilt.net.xml"/>
    </output>

    <processing>
        <geometry.max-grade.fix value="false"/>
        <offset.disable-normalization value="true"/>
        <lefthand value="false"/>
    </processing>

    <junctions>
        <no-turnarounds value="true"/>
        <junctions.corner-detail value="5"/>
        <junctions.limit-turn-speed value="5.5"/>
        <rectangular-lane-cut value="false"/>
    </junctions>

    <pedestrian>
        <walkingareas value="false"/>
    </pedestrian>

</configuration>
-->

<net version="1.3" junctionCornerDetail="5" limitTurnSpeed="5.50" xmlns:xsi="http://www.w3.org/2001/XMLSchema-instance" xsi:noNamespaceSchemaLocation="http://sumo.dlr.de/xsd/net_file.xsd">

    <location netOffset="-648998.15,-5774764.95" convBoundary="0.00,0.00,932.24,1081.72" origBoundary="5.175728,52.103308,5.189544,52.113531" projParameter="+proj=utm +zone=31 +ellps=WGS84 +datum=WGS84 +units=m +no_defs"/>

    <type id="highway.bridleway" priority="1" numLanes="1" speed="2.78" disallow="tram rail_urban rail rail_electric rail_fast ship" oneway="1" width="2.00"/>
    <type id="highway.bus_guideway" priority="1" numLanes="1" speed="27.78" disallow="tram rail_urban rail rail_electric rail_fast ship" oneway="1"/>
    <type id="highway.cycleway" priority="1" numLanes="1" speed="8.33" disallow="tram rail_urban rail rail_electric rail_fast ship" oneway="0" width="1.00"/>
    <type id="highway.footway" priority="1" numLanes="1" speed="2.78" disallow="tram rail_urban rail rail_electric rail_fast ship" oneway="1" width="2.00"/>
    <type id="highway.ford" priority="1" numLanes="1" speed="2.78" disallow="tram rail_urban rail rail_electric rail_fast ship" oneway="0"/>
    <type id="highway.living_street" priority="2" numLanes="1" speed="2.78" disallow="tram rail_urban rail rail_electric rail_fast ship" oneway="0"/>
    <type id="highway.motorway" priority="14" numLanes="2" speed="39.44" allow="private emergency authority army vip passenger hov taxi bus coach delivery truck trailer motorcycle evehicle custom1 custom2" oneway="1"/>
    <type id="highway.motorway_link" priority="9" numLanes="1" speed="22.22" allow="private emergency authority army vip passenger hov taxi bus coach delivery truck trailer motorcycle evehicle custom1 custom2" oneway="1"/>
    <type id="highway.path" priority="1" numLanes="1" speed="2.78" disallow="tram rail_urban rail rail_electric rail_fast ship" oneway="1" width="2.00"/>
    <type id="highway.pedestrian" priority="1" numLanes="1" speed="2.78" disallow="tram rail_urban rail rail_electric rail_fast ship" oneway="1" width="2.00"/>
    <type id="highway.primary" priority="12" numLanes="2" speed="27.78" disallow="tram rail_urban rail rail_electric rail_fast ship" oneway="0"/>
    <type id="highway.primary_link" priority="7" numLanes="1" speed="22.22" disallow="tram rail_urban rail rail_electric rail_fast ship" oneway="0"/>
    <type id="highway.raceway" priority="15" numLanes="2" speed="83.33" allow="vip" oneway="0"/>
    <type id="highway.residential" priority="3" numLanes="1" speed="13.89" disallow="tram rail_urban rail rail_electric rail_fast ship" oneway="0"/>
    <type id="highway.secondary" priority="11" numLanes="1" speed="27.78" disallow="tram rail_urban rail rail_electric rail_fast ship" oneway="0"/>
    <type id="highway.secondary_link" priority="6" numLanes="1" speed="22.22" disallow="tram rail_urban rail rail_electric rail_fast ship" oneway="0"/>
    <type id="highway.service" priority="1" numLanes="1" speed="5.56" disallow="tram rail_urban rail rail_electric rail_fast ship" oneway="0"/>
    <type id="highway.stairs" priority="1" numLanes="1" speed="1.39" disallow="tram rail_urban rail rail_electric rail_fast ship" oneway="1" width="2.00"/>
    <type id="highway.step" priority="1" numLanes="1" speed="1.39" disallow="tram rail_urban rail rail_electric rail_fast ship" oneway="1" width="2.00"/>
    <type id="highway.steps" priority="1" numLanes="1" speed="1.39" disallow="tram rail_urban rail rail_electric rail_fast ship" oneway="1" width="2.00"/>
    <type id="highway.tertiary" priority="10" numLanes="1" speed="22.22" disallow="tram rail_urban rail rail_electric rail_fast ship" oneway="0"/>
    <type id="highway.tertiary_link" priority="5" numLanes="1" speed="22.22" disallow="tram rail_urban rail rail_electric rail_fast ship" oneway="0"/>
    <type id="highway.track" priority="1" numLanes="1" speed="5.56" disallow="tram rail_urban rail rail_electric rail_fast ship" oneway="0"/>
    <type id="highway.trunk" priority="13" numLanes="2" speed="27.78" disallow="pedestrian bicycle tram rail_urban rail rail_electric rail_fast ship" oneway="0"/>
    <type id="highway.trunk_link" priority="8" numLanes="1" speed="22.22" disallow="pedestrian bicycle tram rail_urban rail rail_electric rail_fast ship" oneway="0"/>
    <type id="highway.unclassified" priority="4" numLanes="1" speed="13.89" disallow="tram rail_urban rail rail_electric rail_fast ship" oneway="0"/>
    <type id="highway.unsurfaced" priority="1" numLanes="1" speed="8.33" disallow="tram rail_urban rail rail_electric rail_fast ship" oneway="0"/>
    <type id="railway.highspeed" priority="21" numLanes="1" speed="69.44" allow="rail_fast" oneway="1"/>
    <type id="railway.light_rail" priority="19" numLanes="1" speed="27.78" allow="rail_urban" oneway="1"/>
    <type id="railway.preserved" priority="16" numLanes="1" speed="27.78" allow="rail" oneway="1"/>
    <type id="railway.rail" priority="20" numLanes="1" speed="44.44" allow="rail" oneway="1"/>
    <type id="railway.subway" priority="18" numLanes="1" speed="27.78" allow="rail_urban" oneway="1"/>
    <type id="railway.tram" priority="17" numLanes="1" speed="13.89" allow="tram" oneway="1"/>

    <edge id=":1606274211_0" function="internal">
        <lane id=":1606274211_0_0" index="0" disallow="tram rail_urban rail rail_electric rail_fast ship" speed="8.33" length="14.33" shape="313.89,596.72 308.74,583.35"/>
    </edge>
    <edge id=":1606274211_1" function="internal">
        <lane id=":1606274211_1_0" index="0" disallow="tram rail_urban rail rail_electric rail_fast ship" speed="8.00" length="5.85" shape="313.89,596.72 313.05,592.93 313.40,591.00"/>
    </edge>
    <edge id=":1606274211_2" function="internal">
        <lane id=":1606274211_2_0" index="0" disallow="tram rail_urban rail rail_electric rail_fast ship" speed="3.65" length="2.34" shape="313.89,596.72 314.22,595.32 314.82,594.66"/>
    </edge>
    <edge id=":1606274211_9" function="internal">
        <lane id=":1606274211_9_0" index="0" disallow="tram rail_urban rail rail_electric rail_fast ship" speed="8.00" length="8.34" shape="313.40,591.00 313.62,589.77 315.62,587.26 319.03,585.39"/>
    </edge>
    <edge id=":1606274211_10" function="internal">
        <lane id=":1606274211_10_0" index="0" disallow="tram rail_urban rail rail_electric rail_fast ship" speed="3.65" length="2.34" shape="314.82,594.66 315.71,594.76 316.88,595.60"/>
    </edge>
    <edge id=":1606274211_3" function="internal">
        <lane id=":1606274211_3_0" index="0" disallow="tram rail_urban rail rail_electric rail_fast ship" speed="6.51" length="9.03" shape="320.15,588.38 317.98,589.57 316.72,591.17 316.35,593.18 316.88,595.60"/>
    </edge>
    <edge id=":1606274211_4" function="internal">
        <lane id=":1606274211_4_0" index="0" disallow="tram rail_urban rail rail_electric rail_fast ship" speed="8.04" length="14.17" shape="320.15,588.38 316.36,589.23 313.19,588.67 310.65,586.71 308.74,583.35"/>
    </edge>
    <edge id=":1606274211_5" function="internal">
        <lane id=":1606274211_5_0" index="0" disallow="tram rail_urban rail rail_electric rail_fast ship" speed="3.65" length="4.67" shape="320.15,588.38 318.75,588.06 318.09,587.45 318.19,586.56 319.03,585.39"/>
    </edge>
    <edge id=":1606274211_6" function="internal">
        <lane id=":1606274211_6_0" index="0" disallow="tram rail_urban rail rail_electric rail_fast ship" speed="6.55" length="9.07" shape="311.72,582.18 312.94,584.33 314.57,585.58 316.60,585.93 319.03,585.39"/>
    </edge>
    <edge id=":1606274211_7" function="internal">
        <lane id=":1606274211_7_0" index="0" disallow="tram rail_urban rail rail_electric rail_fast ship" speed="8.33" length="14.38" shape="311.72,582.18 316.88,595.60"/>
    </edge>
    <edge id=":1606274211_8" function="internal">
        <lane id=":1606274211_8_0" index="0" disallow="tram rail_urban rail rail_electric rail_fast ship" speed="3.65" length="2.34" shape="311.72,582.18 311.42,583.59 310.82,584.25"/>
    </edge>
    <edge id=":1606274211_11" function="internal">
        <lane id=":1606274211_11_0" index="0" disallow="tram rail_urban rail rail_electric rail_fast ship" speed="3.65" length="2.34" shape="310.82,584.25 309.93,584.17 308.74,583.35"/>
    </edge>
    <edge id=":1606274245_0" function="internal">
        <lane id=":1606274245_0_0" index="0" disallow="tram rail_urban rail rail_electric rail_fast ship" speed="3.65" length="4.67" shape="384.51,757.32 383.11,756.99 382.45,756.38 382.55,755.49 383.39,754.32"/>
    </edge>
    <edge id=":1606274269_0" function="internal">
        <lane id=":1606274269_0_0" index="0" disallow="tram rail_urban rail rail_electric rail_fast ship" speed="8.33" length="0.20" shape="338.01,674.04 337.95,674.01 337.92,674.00 337.88,673.98 337.84,673.94"/>
    </edge>
    <edge id=":1606274271_0" function="internal">
        <lane id=":1606274271_0_0" index="0" disallow="tram rail_urban rail rail_electric rail_fast ship" speed="8.33" length="0.25" shape="335.32,662.41 335.34,662.33 335.35,662.28 335.36,662.23 335.40,662.17"/>
    </edge>
    <edge id=":1798642650_0" function="internal">
        <lane id=":1798642650_0_0" index="0" disallow="tram rail_urban rail rail_electric rail_fast ship" speed="8.33" length="2.53" width="1.00" shape="708.33,107.47 709.04,107.23 709.54,107.12 710.05,107.05 710.79,106.90"/>
    </edge>
    <edge id=":2298895264_0" function="internal">
        <lane id=":2298895264_0_0" index="0" disallow="tram rail_urban rail rail_electric rail_fast ship" speed="8.33" length="9.94" shape="436.64,526.18 440.27,535.44"/>
    </edge>
    <edge id=":2298895270_0" function="internal">
        <lane id=":2298895270_0_0" index="0" disallow="tram rail_urban rail rail_electric rail_fast ship" speed="8.33" length="9.81" shape="390.36,651.87 381.20,655.36"/>
    </edge>
    <edge id=":2298895270_1" function="internal">
        <lane id=":2298895270_1_0" index="0" disallow="tram rail_urban rail rail_electric rail_fast ship" speed="3.65" length="2.34" shape="390.36,651.87 388.96,651.55 388.30,650.94"/>
    </edge>
    <edge id=":2298895270_4" function="internal">
        <lane id=":2298895270_4_0" index="0" disallow="tram rail_urban rail rail_electric rail_fast ship" speed="3.65" length="2.34" shape="388.30,650.94 388.39,650.05 389.23,648.88"/>
    </edge>
    <edge id=":2298895270_2" function="internal">
        <lane id=":2298895270_2_0" index="0" disallow="tram rail_urban rail rail_electric rail_fast ship" speed="8.33" length="9.82" shape="380.05,652.37 389.23,648.88"/>
    </edge>
    <edge id=":2298895270_3" function="internal">
        <lane id=":2298895270_3_0" index="0" disallow="tram rail_urban rail rail_electric rail_fast ship" speed="3.65" length="2.34" shape="380.05,652.37 381.46,652.69 382.12,653.30"/>
    </edge>
    <edge id=":2298895270_5" function="internal">
        <lane id=":2298895270_5_0" index="0" disallow="tram rail_urban rail rail_electric rail_fast ship" speed="3.65" length="2.34" shape="382.12,653.30 382.03,654.19 381.20,655.36"/>
    </edge>
    <edge id=":2396504783_0" function="internal">
        <lane id=":2396504783_0_0" index="0" disallow="tram rail_urban rail rail_electric rail_fast ship" speed="3.65" length="4.67" shape="85.60,12.23 84.20,11.89 83.55,11.28 83.65,10.39 84.50,9.23"/>
    </edge>
    <edge id=":261178925_0" function="internal">
        <lane id=":261178925_0_0" index="0" disallow="tram rail_urban rail rail_electric rail_fast ship" speed="7.64" length="8.61" shape="172.96,243.06 173.91,244.77 175.38,246.06 177.36,246.93 179.86,247.38"/>
    </edge>
    <edge id=":261178925_1" function="internal">
        <lane id=":261178925_1_0" index="0" disallow="tram rail_urban rail rail_electric rail_fast ship" speed="7.93" length="8.70" shape="168.43,252.26 169.72,250.43 170.40,248.47 170.48,246.37 169.95,244.15"/>
    </edge>
    <edge id=":261178925_2" function="internal">
        <lane id=":261178925_2_0" index="0" disallow="tram rail_urban rail rail_electric rail_fast ship" speed="10.57" length="12.89" shape="168.43,252.26 170.98,249.91 173.74,248.32 176.70,247.47 179.86,247.38"/>
    </edge>
    <edge id=":261178930_0" function="internal">
        <lane id=":261178930_0_0" index="0" disallow="tram rail_urban rail rail_electric rail_fast ship" speed="8.02" length="8.16" shape="195.72,257.00 194.09,257.71 192.70,258.93 191.53,260.67 190.61,262.92"/>
    </edge>
    <edge id=":261178930_1" function="internal">
        <lane id=":261178930_1_0" index="0" disallow="tram rail_urban rail rail_electric rail_fast ship" speed="8.61" length="8.05" shape="187.61,251.12 189.79,252.60 191.74,253.55 193.45,253.99 194.94,253.90"/>
    </edge>
    <edge id=":261178930_2" function="internal">
        <lane id=":261178930_2_0" index="0" disallow="tram rail_urban rail rail_electric rail_fast ship" speed="8.85" length="13.07" shape="187.61,251.12 189.85,253.41 191.09,256.14 191.35,259.31 190.61,262.92"/>
    </edge>
    <edge id=":261178939_0" function="internal">
        <lane id=":261178939_0_0" index="0" disallow="tram rail_urban rail rail_electric rail_fast ship" speed="7.23" length="7.92" shape="169.47,268.94 167.93,267.38 166.25,266.43 164.44,266.09 162.50,266.35"/>
    </edge>
    <edge id=":261178939_1" function="internal">
        <lane id=":261178939_1_0" index="0" disallow="tram rail_urban rail rail_electric rail_fast ship" speed="10.31" length="11.31" shape="169.47,268.94 167.52,266.13 166.25,263.47 165.68,260.96 165.79,258.60"/>
    </edge>
    <edge id=":261178939_2" function="internal">
        <lane id=":261178939_2_0" index="0" disallow="tram rail_urban rail rail_electric rail_fast ship" speed="6.91" length="6.60" shape="161.64,263.27 163.17,262.62 164.38,261.62 165.25,260.28 165.79,258.60"/>
    </edge>
    <edge id=":2703921976_0" function="internal">
        <lane id=":2703921976_0_0" index="0" disallow="tram rail_urban rail rail_electric rail_fast ship" speed="6.58" length="9.12" shape="363.75,577.50 362.56,575.55 360.90,574.47 358.75,574.24 356.14,574.88"/>
    </edge>
    <edge id=":2703921976_1" function="internal">
        <lane id=":2703921976_1_0" index="0" disallow="tram rail_urban rail rail_electric rail_fast ship" speed="8.33" length="15.86" shape="363.75,577.50 357.91,562.76"/>
    </edge>
    <edge id=":2703921976_2" function="internal">
        <lane id=":2703921976_2_0" index="0" disallow="tram rail_urban rail rail_electric rail_fast ship" speed="6.95" length="6.81" shape="363.75,577.50 363.16,573.97 363.68,570.79"/>
    </edge>
    <edge id=":2703921976_3" function="internal">
        <lane id=":2703921976_3_0" index="0" disallow="tram rail_urban rail rail_electric rail_fast ship" speed="3.65" length="2.34" shape="363.75,577.50 364.05,576.09 364.64,575.43"/>
    </edge>
    <edge id=":2703921976_16" function="internal">
        <lane id=":2703921976_16_0" index="0" disallow="tram rail_urban rail rail_electric rail_fast ship" speed="6.95" length="7.79" shape="363.68,570.79 363.79,570.16 365.50,566.81 368.15,564.69"/>
    </edge>
    <edge id=":2703921976_17" function="internal">
        <lane id=":2703921976_17_0" index="0" disallow="tram rail_urban rail rail_electric rail_fast ship" speed="3.65" length="2.34" shape="364.64,575.43 365.53,575.50 366.72,576.32"/>
    </edge>
    <edge id=":2703921976_4" function="internal">
        <lane id=":2703921976_4_0" index="0" disallow="tram rail_urban rail rail_electric rail_fast ship" speed="6.92" length="10.28" shape="369.37,567.65 367.23,569.00 366.08,570.90 365.91,573.34 366.72,576.32"/>
    </edge>
    <edge id=":2703921976_5" function="internal">
        <lane id=":2703921976_5_0" index="0" disallow="tram rail_urban rail rail_electric rail_fast ship" speed="6.95" length="15.09" shape="369.37,567.65 366.01,569.34 362.77,571.32 359.53,573.28 356.14,574.88"/>
    </edge>
    <edge id=":2703921976_6" function="internal">
        <lane id=":2703921976_6_0" index="0" disallow="tram rail_urban rail rail_electric rail_fast ship" speed="6.95" length="14.26" shape="369.37,567.65 365.57,568.61 362.40,568.12 359.84,566.17 357.91,562.76"/>
    </edge>
    <edge id=":2703921976_7" function="internal">
        <lane id=":2703921976_7_0" index="0" disallow="tram rail_urban rail rail_electric rail_fast ship" speed="3.65" length="4.67" shape="369.37,567.65 367.95,567.37 367.28,566.78 367.34,565.89 368.15,564.69"/>
    </edge>
    <edge id=":2703921976_8" function="internal">
        <lane id=":2703921976_8_0" index="0" disallow="tram rail_urban rail rail_electric rail_fast ship" speed="6.47" length="9.03" shape="360.89,561.59 362.12,563.75 363.73,564.99 365.75,565.30 368.15,564.69"/>
    </edge>
    <edge id=":2703921976_9" function="internal">
        <lane id=":2703921976_9_0" index="0" disallow="tram rail_urban rail rail_electric rail_fast ship" speed="8.33" length="15.84" shape="360.89,561.59 366.72,576.32"/>
    </edge>
    <edge id=":2703921976_10" function="internal">
        <lane id=":2703921976_10_0" index="0" disallow="tram rail_urban rail rail_electric rail_fast ship" speed="8.23" length="6.90" shape="360.89,561.59 361.49,565.29 360.94,568.40"/>
    </edge>
    <edge id=":2703921976_11" function="internal">
        <lane id=":2703921976_11_0" index="0" disallow="tram rail_urban rail rail_electric rail_fast ship" speed="3.65" length="2.34" shape="360.89,561.59 360.59,563.00 359.99,563.67"/>
    </edge>
    <edge id=":2703921976_18" function="internal">
        <lane id=":2703921976_18_0" index="0" disallow="tram rail_urban rail rail_electric rail_fast ship" speed="8.23" length="8.35" shape="360.94,568.40 360.79,569.27 358.95,572.74 356.14,574.88"/>
    </edge>
    <edge id=":2703921976_19" function="internal">
        <lane id=":2703921976_19_0" index="0" disallow="tram rail_urban rail rail_electric rail_fast ship" speed="3.65" length="2.34" shape="359.99,563.67 359.10,563.59 357.91,562.76"/>
    </edge>
    <edge id=":2703921976_12" function="internal">
        <lane id=":2703921976_12_0" index="0" disallow="tram rail_urban rail rail_electric rail_fast ship" speed="7.33" length="11.86" shape="353.88,572.31 356.67,570.76 358.28,568.65 358.69,565.99 357.91,562.76"/>
    </edge>
    <edge id=":2703921976_13" function="internal">
        <lane id=":2703921976_13_0" index="0" disallow="tram rail_urban rail rail_electric rail_fast ship" speed="6.95" length="16.19" shape="353.88,572.31 357.43,570.65 361.03,568.56 364.63,566.44 368.15,564.69"/>
    </edge>
    <edge id=":2703921976_14" function="internal">
        <lane id=":2703921976_14_0" index="0" disallow="tram rail_urban rail rail_electric rail_fast ship" speed="8.33" length="15.21" shape="353.88,572.31 358.35,571.19 361.98,571.48 364.77,573.19 366.72,576.32"/>
    </edge>
    <edge id=":2703921976_15" function="internal">
        <lane id=":2703921976_15_0" index="0" disallow="tram rail_urban rail rail_electric rail_fast ship" speed="3.73" length="5.00" shape="353.88,572.31 355.41,572.11 356.29,572.47 356.54,573.39 356.14,574.88"/>
    </edge>
    <edge id=":2883144103_0" function="internal">
        <lane id=":2883144103_0_0" index="0" disallow="tram rail_urban rail rail_electric rail_fast ship" speed="6.49" length="9.03" shape="476.76,704.05 477.98,706.21 479.60,707.45 481.61,707.77 484.02,707.18"/>
    </edge>
    <edge id=":2883144103_1" function="internal">
        <lane id=":2883144103_1_0" index="0" disallow="tram rail_urban rail rail_electric rail_fast ship" speed="8.33" length="9.63" shape="477.87,714.06 478.61,711.84 479.88,709.95 481.68,708.40 484.02,707.18"/>
    </edge>
    <edge id=":2883144105_0" function="internal">
        <lane id=":2883144105_0_0" index="0" disallow="tram rail_urban rail rail_electric rail_fast ship" speed="8.33" length="9.71" shape="481.82,720.74 472.78,724.29"/>
    </edge>
    <edge id=":2883144105_1" function="internal">
        <lane id=":2883144105_1_0" index="0" disallow="tram rail_urban rail rail_electric rail_fast ship" speed="5.84" length="10.13" shape="481.82,720.74 479.43,721.18 477.97,720.26 477.43,717.99 477.81,714.37"/>
    </edge>
    <edge id=":2883144105_2" function="internal">
        <lane id=":2883144105_2_0" index="0" disallow="tram rail_urban rail rail_electric rail_fast ship" speed="3.65" length="4.67" shape="481.82,720.74 480.41,720.43 479.74,719.83 479.82,718.94 480.65,717.76"/>
    </edge>
    <edge id=":2883144105_3" function="internal">
        <lane id=":2883144105_3_0" index="0" disallow="tram rail_urban rail rail_electric rail_fast ship" speed="8.33" length="9.70" shape="471.66,721.30 473.98,720.14 475.78,718.60 477.06,716.67 477.81,714.37"/>
    </edge>
    <edge id=":2883144105_4" function="internal">
        <lane id=":2883144105_4_0" index="0" disallow="tram rail_urban rail rail_electric rail_fast ship" speed="8.33" length="9.66" shape="471.66,721.30 480.65,717.76"/>
    </edge>
    <edge id=":2883144105_5" function="internal">
        <lane id=":2883144105_5_0" index="0" disallow="tram rail_urban rail rail_electric rail_fast ship" speed="3.65" length="4.67" shape="471.66,721.30 473.06,721.63 473.72,722.23 473.62,723.12 472.78,724.29"/>
    </edge>
    <edge id=":2917624488_0" function="internal">
        <lane id=":2917624488_0_0" index="0" disallow="tram rail_urban rail rail_electric rail_fast ship" speed="6.52" length="8.94" shape="438.24,633.65 436.12,634.85 434.89,636.45 434.53,638.45 435.05,640.85"/>
    </edge>
    <edge id=":2917624488_1" function="internal">
        <lane id=":2917624488_1_0" index="0" disallow="tram rail_urban rail rail_electric rail_fast ship" speed="8.33" length="11.03" shape="438.24,633.65 427.95,637.62"/>
    </edge>
    <edge id=":2917624488_2" function="internal">
        <lane id=":2917624488_2_0" index="0" disallow="tram rail_urban rail rail_electric rail_fast ship" speed="3.65" length="4.67" shape="438.24,633.65 436.83,633.34 436.16,632.75 436.24,631.86 437.07,630.67"/>
    </edge>
    <edge id=":2917624488_3" function="internal">
        <lane id=":2917624488_3_0" index="0" disallow="tram rail_urban rail rail_electric rail_fast ship" speed="8.33" length="10.99" shape="426.82,634.63 437.07,630.67"/>
    </edge>
    <edge id=":2917624488_4" function="internal">
        <lane id=":2917624488_4_0" index="0" disallow="tram rail_urban rail rail_electric rail_fast ship" speed="7.28" length="11.62" shape="426.82,634.63 429.28,634.28 431.47,635.20 433.40,637.39 435.05,640.85"/>
    </edge>
    <edge id=":2917624488_5" function="internal">
        <lane id=":2917624488_5_0" index="0" disallow="tram rail_urban rail rail_electric rail_fast ship" speed="3.65" length="4.67" shape="426.82,634.63 428.22,634.95 428.88,635.56 428.79,636.45 427.95,637.62"/>
    </edge>
    <edge id=":3004479922_0" function="internal">
        <lane id=":3004479922_0_0" index="0" disallow="tram rail_urban rail rail_electric rail_fast ship" speed="5.56" length="9.04" shape="394.48,563.49 393.34,561.27 391.77,559.99 389.77,559.66 387.35,560.27"/>
    </edge>
    <edge id=":3004479922_1" function="internal">
        <lane id=":3004479922_1_0" index="0" disallow="tram rail_urban rail rail_electric rail_fast ship" speed="5.56" length="14.28" shape="394.48,563.49 393.70,559.60 394.27,556.37 396.20,553.78 399.47,551.83"/>
    </edge>
    <edge id=":3004479922_2" function="internal">
        <lane id=":3004479922_2_0" index="0" disallow="tram rail_urban rail rail_electric rail_fast ship" speed="3.65" length="4.67" shape="394.48,563.49 394.84,562.09 395.47,561.45 396.36,561.57 397.50,562.44"/>
    </edge>
    <edge id=":3004479922_3" function="internal">
        <lane id=":3004479922_3_0" index="0" disallow="tram rail_urban rail rail_electric rail_fast ship" speed="5.56" length="9.33" shape="400.69,554.80 398.57,556.06 397.34,557.75 396.98,559.88 397.50,562.44"/>
    </edge>
    <edge id=":3004479922_4" function="internal">
        <lane id=":3004479922_4_0" index="0" disallow="tram rail_urban rail rail_electric rail_fast ship" speed="5.56" length="14.41" shape="400.69,554.80 387.35,560.27"/>
    </edge>
    <edge id=":3004479922_5" function="internal">
        <lane id=":3004479922_5_0" index="0" disallow="tram rail_urban rail rail_electric rail_fast ship" speed="3.65" length="4.67" shape="400.69,554.80 399.27,554.51 398.60,553.92 398.66,553.03 399.47,551.83"/>
    </edge>
    <edge id=":3004479922_6" function="internal">
        <lane id=":3004479922_6_0" index="0" disallow="tram rail_urban rail rail_electric rail_fast ship" speed="5.56" length="14.41" shape="386.14,557.31 399.47,551.83"/>
    </edge>
    <edge id=":3004479922_7" function="internal">
        <lane id=":3004479922_7_0" index="0" disallow="tram rail_urban rail rail_electric rail_fast ship" speed="5.56" length="14.41" shape="386.14,557.31 390.00,556.33 393.18,556.87 395.68,558.90 397.50,562.44"/>
    </edge>
    <edge id=":3004479922_8" function="internal">
        <lane id=":3004479922_8_0" index="0" disallow="tram rail_urban rail rail_electric rail_fast ship" speed="3.65" length="4.67" shape="386.14,557.31 387.55,557.59 388.23,558.18 388.16,559.07 387.35,560.27"/>
    </edge>
    <edge id=":3004481107_0" function="internal">
        <lane id=":3004481107_0_0" index="0" disallow="tram rail_urban rail rail_electric rail_fast ship" speed="5.56" length="9.03" shape="380.39,569.20 379.16,567.05 377.54,565.82 375.53,565.50 373.12,566.11"/>
    </edge>
    <edge id=":3004481107_1" function="internal">
        <lane id=":3004481107_1_0" index="0" disallow="tram rail_urban rail rail_electric rail_fast ship" speed="5.56" length="14.21" shape="380.39,569.20 379.47,565.40 379.97,562.22 381.89,559.65 385.23,557.68"/>
    </edge>
    <edge id=":3004481107_2" function="internal">
        <lane id=":3004481107_2_0" index="0" disallow="tram rail_urban rail rail_electric rail_fast ship" speed="3.65" length="4.67" shape="380.39,569.20 380.69,567.79 381.29,567.12 382.18,567.20 383.37,568.02"/>
    </edge>
    <edge id=":3004481107_3" function="internal">
        <lane id=":3004481107_3_0" index="0" disallow="tram rail_urban rail rail_electric rail_fast ship" speed="5.56" length="9.09" shape="386.44,560.64 384.31,561.90 383.09,563.54 382.78,565.59 383.37,568.02"/>
    </edge>
    <edge id=":3004481107_4" function="internal">
        <lane id=":3004481107_4_0" index="0" disallow="tram rail_urban rail rail_electric rail_fast ship" speed="5.56" length="14.40" shape="386.44,560.64 373.12,566.11"/>
    </edge>
    <edge id=":3004481107_5" function="internal">
        <lane id=":3004481107_5_0" index="0" disallow="tram rail_urban rail rail_electric rail_fast ship" speed="3.65" length="4.67" shape="386.44,560.64 385.03,560.36 384.35,559.77 384.42,558.88 385.23,557.68"/>
    </edge>
    <edge id=":3004481107_6" function="internal">
        <lane id=":3004481107_6_0" index="0" disallow="tram rail_urban rail rail_electric rail_fast ship" speed="5.56" length="14.40" shape="371.91,563.15 385.23,557.68"/>
    </edge>
    <edge id=":3004481107_7" function="internal">
        <lane id=":3004481107_7_0" index="0" disallow="tram rail_urban rail rail_electric rail_fast ship" speed="5.56" length="14.24" shape="371.91,563.15 375.69,562.19 378.87,562.69 381.42,564.63 383.37,568.02"/>
    </edge>
    <edge id=":3004481107_8" function="internal">
        <lane id=":3004481107_8_0" index="0" disallow="tram rail_urban rail rail_electric rail_fast ship" speed="3.65" length="4.67" shape="371.91,563.15 373.32,563.44 373.99,564.02 373.93,564.92 373.12,566.11"/>
    </edge>
    <edge id=":3004483094_0" function="internal">
        <lane id=":3004483094_0_0" index="0" disallow="tram rail_urban rail rail_electric rail_fast ship" speed="5.56" length="8.03" shape="415.95,566.44 416.43,568.61 416.08,570.37 414.91,571.74 412.91,572.70"/>
    </edge>
    <edge id=":3004483094_1" function="internal">
        <lane id=":3004483094_1_0" index="0" disallow="tram rail_urban rail rail_electric rail_fast ship" speed="3.90" length="2.68" shape="411.94,569.65 412.61,569.33 413.00,568.88 413.12,568.29 412.96,567.57"/>
    </edge>
    <edge id=":3004485216_0" function="internal">
        <lane id=":3004485216_0_0" index="0" disallow="tram rail_urban rail rail_electric rail_fast ship" speed="8.33" length="0.10" shape="338.17,581.62 338.17,581.62"/>
    </edge>
    <edge id=":3004485216_1" function="internal">
        <lane id=":3004485216_1_0" index="0" disallow="tram rail_urban rail rail_electric rail_fast ship" speed="8.33" length="0.10" shape="337.05,578.62 337.05,578.62"/>
    </edge>