<?xml version="1.0" encoding="UTF-8"?>

<!-- generated on Fri Nov  1 14:45:50 2019 by Eclipse SUMO duarouter Version UNKNOWN
<configuration xmlns:xsi="http://www.w3.org/2001/XMLSchema-instance" xsi:noNamespaceSchemaLocation="http://sumo.dlr.de/xsd/duarouterConfiguration.xsd">

    <input>
        <net-file value="eichstaedt.extreme.staticTL.lights.net.xml"/>
        <route-files value="trips.trips.xml"/>
    </input>

    <output>
        <output-file value="tenthousand.routes.xml"/>
        <alternatives-output value="tenthousand.routes.alt.xml"/>
    </output>

    <time>
        <begin value="0"/>
        <end value="10000.0"/>
    </time>

    <report>
        <no-warnings value="true"/>
        <ignore-errors value="true"/>
        <no-step-log value="true"/>
    </report>

</configuration>
-->

<routes xmlns:xsi="http://www.w3.org/2001/XMLSchema-instance" xsi:noNamespaceSchemaLocation="http://sumo.dlr.de/xsd/routes_file.xsd">
 <route id="0" edges="-2809#2 2962#0 3007 gneE5 -3012#1 -2770 -2963 2782#1 2656 -2793#1 -2793#0"/>
 <route id="1" edges="2693 -2860 2814#4 2814#5 2806#1 2641#2 2641#0 2685"/>
 <route id="2" edges="-2699 2699 gneE0 -2655#1 2826 -2847#7 -2847#6 gneE10 -2735 -2847#0 -2846#6 -2846#5 -2846#4 gneE35 2788#0 2750 -2674#1 -2674#0 -2814#6"/>
 <route id="3" edges="2967#4 -2840 -2846#14 -gneE37 -2846#11 2807 gneE7 -2846#6 -2846#5 -2846#4 gneE35 2788#0 2750 -2674#1 -2674#0 -2814#6 -2814#5 -2814#4 2708 2678"/>
 <route id="4" edges="-2799#3 -2627 2623 2814#6 2674#0 2674#1 -2750 -2788#0 -gneE35 2846#4 2846#5 2846#6 gneE6 -2807 2846#11 gneE37 2946#0 2946#1 -2856 2737#4"/>
 <route id="5" edges="-2932#1 -2932#0 2624#1 2623 2814#6 2674#0 2674#1 -2750 -2788#0 -gneE35 2846#4 2846#5 2846#6 gneE6 -2807 2846#11 gneE37 2946#0 2946#1 -2946#1"/>
 <route id="6" edges="-2870#5 -2870#4 -2870#3 -2870#2 -2870#1 -2870#0 -2795#2 -2795#1 -2795#0 -2910 -2883 -2722 2684#0 3042#0 3042#1 2771"/>
 <route id="7" edges="-2793#1 -2793#0 2707#0 2707#1 2707#2 2846#6 gneE6 -2807 2846#11 gneE37 2946#0 2946#1 -2856 2737#4"/>
 <route id="8" edges="2732#6 2732#7 2732#8 -2631#4 -2631#3 -2960#6 -2960#5 -2960#4 -2960#3 -2960#2 -2960#1 2960#1"/>
 <route id="9" edges="-2781#2 -2670 -2860 2814#4 2814#5 2814#6 2674#0 2674#1 -2750 -2788#0 -gneE35 2846#4 2846#5 2846#6 gneE6 -2807 2846#11 gneE37 2946#0 2946#1 2946#2 2722 2883 2910 2795#0 2795#1 2795#2 2870#0 2870#1 2870#2 2870#3 2870#4 2870#5 -2870#5"/>
 <route id="10" edges="2747#2 2747#3 -2870#5 -2870#4 -2870#3 -2870#2 -2870#1 -2870#0 -2795#2 -2795#1 -2795#0 -2910 -2883 -2722 -2946#2 -2946#1 -2946#0 -gneE37 -2846#11 2807 gneE7 -2846#6 -2846#5 -2846#4 gneE35 2954 2808 -2845 -3000 2939#0 2939#1 -gneE22"/>
 <route id="11" edges="-2782#0 -2915#1 gneE17 2986 2707#2 2695#1 gneE94 gneE95 gneE97 -2785#1 -2785#0 2732#8 2741#0 2741#1 2741#2 -2741#2"/>
 <route id="12" edges="2638 -2638 -2989 -2870#5 -2870#4 -2870#3 -2870#2 -2870#1 -2870#0 -2795#2 -2795#1 -2795#0 2967#0 2967#1 2967#2 2967#3 2967#4 2706#0 2706#1 2706#2 2706#3 2706#4 2743#0 -2851#1 gneE100 -2785#1 -2785#0 2732#8 -2631#4 2990#0 2862#0 2862#1 2862#2 3036#4 3036#5"/>
 <route id="13" edges="2818 -2730 -2810 -2870#3 -2870#2 -2870#1 -2870#0 -2795#2 -2795#1 -2795#0 2967#0 2967#1 2967#2 2967#3 2967#4 2706#0 2706#1 2706#2 2706#3 2706#4 2743#0 -2851#1 gneE100 -2785#1 2780 -gneE46 -gneE44"/>
 <route id="14" edges="2690#3 -2690#3 -2690#2 -2690#1 -2690#0 2624#0 2624#1 2623 -2814#5 -2814#4 -2814#3 -2814#2 -2814#1"/>
 <route id="15" edges="-2776 2776 -2946#2 -2946#1 -2946#0 -gneE37 -2846#11 2807 gneE7 -2846#6 -2846#5 -2846#4 gneE35 2954 2808 2835#0 2964#0 2964#1 -2964#1"/>
 <route id="16" edges="2765 -2980#1 -2980#0 2814#3 2814#4 2814#5 2814#6 2674#0 2674#1 -2750 -2884#0 -2841#2 -2841#1 -2841#0 -2759#1 -2759#0 -2923 2960#0 2960#1 2960#2 2960#3 2960#4 3036#0 3036#1 3036#2 3036#3 3036#4 3036#5 -2886 2886"/>
 <route id="17" edges="-2712#2 2712#2 2712#3 gneE98 gneE14 -2939#5 gneE22 -2939#1"/>
 <route id="18" edges="-2807 2846#11 gneE37 2846#14 2840 2706#0 2706#1 2706#2 2706#3 2706#4 2743#0 -2851#1 gneE100 -2785#1 -2785#0 -2732#7 -2732#6 2732#6"/>
 <route id="19" edges="-2836#1 2902 -2904 2857#2 2664#5 -2795#0 -2910 -2883 -2722 -2946#2 -2946#1 -3022 -2737#1"/>
 <route id="20" edges="-2781#2 -2670 -2860 2814#4 2814#5 2814#6 2674#0 2674#1 -2750 -2788#0 -gneE35 2846#4 2846#5 -2707#2 -2986 gneE18 2915#1 2782#0 2963"/>
 <route id="21" edges="-2999#1 gneE11 2847#6 -2881#3 -2875 -3033 -2933#1"/>
 <route id="23" edges="-2684#0 -2946#2 -2946#1 -2946#0 -gneE37 -2846#11 2807 gneE7 -2846#6 -2846#5 -2846#4 gneE35 2788#0 2750 -2674#1 -2710 2788#2"/>
 <route id="24" edges="2836#1 -2700#0 2967#4 -2840 -2846#14 -gneE37 -2846#11 2807 gneE7 -2846#6 -2846#5 -2846#4 gneE35 2788#0 2750 -gneE36 -3040#1 3027#0"/>
 <route id="25" edges="2616 -2622 2777#2 -2855#3 -2748 -2808 -2954 -gneE35 2846#4 2846#5 -2707#2 -2986 gneE18 2915#1 2782#0 2963 2770"/>
 <route id="26" edges="2743#1 2743#2 2743#3"/>
 <route id="27" edges="-2733#1 2733#1 2690#0 2690#1 2690#2 2690#3 2690#4 2690#5 -2923 2960#0 2960#1 2960#2 2960#3 2960#4 2960#5 2960#6 2631#3 2631#4 2741#0 2741#1 2741#2 -2741#2"/>
 <route id="28" edges="3025#0 3025#1 -2967#0 -2910 -2883 -2722 -2946#2 -2946#1 -2946#0 2712#0 2712#1 2712#2"/>
 <route id="29" edges="2926#1 2926#2 2926#3 -2773#2 gneE8 -2807 2846#11 gneE37 2846#14 2840 2706#0 2706#1 2706#2 2706#3 2706#4 2743#0 2743#1 2743#2 2743#3 -gneE42 gneE43 -2983#1 2644"/>
 <route id="30" edges="-3023 -2981 2744#1 2732#4 2732#6 gneE38 -gneE40 -gneE46 -gneE44 gneE42 -2743#3 -2743#2"/>
 <route id="31" edges="-2827#1 -2827#0 -2640 -2768 2706#3 2706#4 2743#0 -2851#1 gneE100 -2785#1 -2785#0 -2732#7 -2732#6 3018#0 -gneE33 -2732#1 -2732#0 -gneE23 2939#0 2939#1 -gneE22"/>
 <route id="32" edges="2793#0 -2793#0 2707#0 2707#1 2707#2 -2846#5 -2846#4 gneE35 2788#0 2750 -gneE36 -3040#1 -3040#0 2641#0 2685 -2685"/>
 <route id="33" edges="-2755 -2782#1 -2782#0 -2915#1 gneE17 2986 2707#2 2695#1 gneE94 gneE95 gneE97 gneE101 2851#1 -2743#0 -2706#4 2804#0 2824"/>
 <route id="34" edges="gneE1 -2699 -2629 -2638 -3003"/>
 <route id="35" edges="-2795#1 -2795#0 -2910 -2883 -2722 -2946#2 -2946#1 -2946#0 -gneE37 -2846#11 2807 gneE7 -2846#6 -2846#5 -2846#4 gneE35 2788#0 -2884#0 -2841#2 -2841#1 2717 -2717"/>
 <route id="36" edges="-2622 2777#2 -2855#3 -2748 -2808 -2954 -gneE35 2846#4 2846#5 2846#6 2847#0 2735 gneE11 2847#6 -2881#3 -2881#2 -2881#1"/>
 <route id="37" edges="2741#2 -2741#2 -2741#1 -2741#0 -2732#8 -2732#7 -2732#6 3018#0 -gneE33 -2732#1 2732#1"/>
 <route id="38" edges="-gneE78 gneE56 gneE47 gneE48 -gneE67"/>
 <route id="39" edges="2700#3 3025#0 3025#1 2967#1 2967#2 2967#3 2967#4 2706#0 2706#1 2706#2 2706#3 2706#4 2743#0 -2851#1 gneE100 -2785#1 -2785#0 2732#8 -2631#4 -2631#3 -2631#2 -2631#1 -2631#0 2777#0 2777#1 2777#2 -2855#3 -2855#2"/>
 <route id="40" edges="-2934#0 2934#0 3039#1 2926#2 2926#3 -2773#2 gneE8 gneE7 -2846#6 -2846#5 -2846#4 gneE35 2788#0 2750 -2674#1 -2674#0 -2814#6 -2814#5 -2814#4 -2814#3 -2814#2"/>
 <route id="41" edges="-2771 -3042#1 -3042#0 -2684#0 -2946#2 -2946#1 -2946#0 -gneE37 -2846#11 2807 gneE7 -2846#6 -2846#5 -2846#4 gneE35 2788#0 2750 -2674#1 -2674#0 -2814#6 -2623 2627 2799#3 2799#4 2997#1 -2997#1"/>
 <route id="42" edges="-2892#0 -2927 -2961 2702#1 -3035 2733#1 2690#0 2690#1 2690#2 2690#3 2690#4 2690#5 -2690#5"/>
 <route id="43" edges="-2685 2641#1 -2806#1 2814#6 2674#0 2674#1 -2750 -2788#0 -gneE35 2846#4 2846#5 -2707#2 -2986 gneE18 2915#1 -2915#1"/>
 <route id="44" edges="gneE5 -3012#1 -2770 -2963 -2782#0 -2915#1 gneE17 2986 2707#2 2846#6 gneE6 -2807 2846#11 gneE37 2846#14 2840 -2967#4 -2967#3 -2967#2 -2636 2700#3"/>
 <route id="45" edges="2765 -2980#1 -2980#0 2814#3 2860 -2693"/>
 <route id="46" edges="2933#1 3033 2875 2881#3 -2847#6 gneE10 -2735 -2847#0 gneE6 gneE9 2773#2 -2926#3 -2926#2 -2926#1"/>
 <route id="47" edges="-2915#1 gneE17 2986 2707#2 2846#6 gneE6 -2807 2846#11 gneE37 2946#0 2946#1 2946#2 2722 2883 2910 2795#0 -2664#5 -2857#2 2904 -2902 -2836#0"/>
 <route id="48" edges="2833 2853 -2980#2 -2980#1 -2980#0 2814#3"/>
 <route id="49" edges="-2684#0 -2946#2 -2946#1 -2946#0 -gneE37 -2846#11 2807 gneE7 -2846#6 2695#1 gneE94 gneE95 gneE97"/>
 <route id="50" edges="gneE4 2653 -2698#2 -2698#1 -2698#0 -2870#6 -2870#5 -2870#4 -2870#3 -2870#2 -2870#1 -2870#0 -2795#2 -2795#1 -2795#0 -2910 -2883 -2722 -2946#2 -2946#1 -2946#0 -gneE37 -2846#11 2807 gneE7 -2846#6 -2846#5 -2846#4 gneE35 2788#0 2750 -2674#1 -2674#0 -2814#6 -2623 -2624#1 -2624#0 -2733#1"/>
 <route id="51" edges="-2706#2 -2706#1 -2706#0 -2840 -2846#14 -gneE37 -2846#11 2807 gneE7 -2846#6 -2846#5 -2846#4 gneE35 2788#0 2750 -2674#1 -2674#0 -2814#6 -2814#5 -2814#4 2860 -2693"/>
 <route id="52" edges="-2799#4 2676 -2799#1 -2799#0 -2932#0 -2624#0 -2733#1 3035 2702#0"/>
 <route id="53" edges="2771 2687 2859 gneE10 -2735 -2847#0 gneE6 -2807 2846#11 gneE37 2946#0 2946#1 2946#2 2722 2883 2910 2795#0 -2664#5 -2746#1 -2746#0"/>
 <route id="54" edges="-2732#1 2992 2777#1 2777#2 -2855#3 -2748 2835#0 2964#0 -2964#3 3014"/>
 <route id="55" edges="2691#1 2832#0 2832#1 -2690#2 -2690#1 -2690#0 2624#0 2932#0 2799#0 2997#0"/>
 <route id="56" edges="-2967#1 -2967#0 -2910 -2883 -2722 -2946#2 -2946#1 -2946#0 -gneE37 -2846#11 2807 gneE7 -2846#6 -2846#5 -2846#4 gneE35 2788#0 2750 -2674#1 -2674#0 -2814#6 -2814#5 -2814#4 2708 2833"/>
 <route id="57" edges="3013#0 2882 2805 -2773#2 gneE8 -2807 2846#11 gneE37 2946#0 2946#1 2946#2 2722 2883 2910 2795#0 -2664#5 -2664#4 2664#4"/>
 <route id="58" edges="2747#3 -2870#5 -2870#4 -2870#3 -2870#2 -2870#1 -2870#0 -2795#2 -2795#1 -2664#5 -2746#1"/>
 <route id="59" edges="-2623 2623 2814#6 2674#0 2674#1 -2750 -2788#0 -gneE35 2846#4 2846#5 2695#1 gneE14 -2813"/>
 <route id="60" edges="3023 -2786#0 -2732#2 -2732#1 -2732#0 -gneE23 3000 -3000"/>
 <route id="61" edges="3037#1 2870#5 2870#6 2809#0 2809#1 -gneE48 -gneE47"/>
 <route id="62" edges="2737#0 2737#1 3022 -2946#0 -gneE37 -2846#11 2807 gneE7 2847#0 2735 gneE11 2847#6 -2881#3 -2881#2 2933#1"/>
 <route id="63" edges="-2869#1 -2869#0 -2847#7 -2847#6 gneE10 -2735 -2847#0 -2846#6 -2846#5 -2846#4 gneE35 2788#0 2750 -2674#1 -2674#0 -2814#6 -2814#5 -2814#4 -2814#3 2980#0 2980#1 2980#2 -2853 2783 2620"/>
 <route id="64" edges="-2799#3 -2627 2623 2814#6 2674#0 2674#1 -2750 -2884#0 -2841#2 -2841#1 -2841#0 2855#0 2787#0 2787#1 2945"/>
 <route id="65" edges="2901 -2997#1 -2997#0 -2799#0 -2932#0 -2624#0 2690#0 2690#1 2690#2 -2832#1 -2651 -2711#0 2691#4 2691#5 2720 -2720"/>
 <route id="66" edges="2814#5 -2623 -2624#1 -2624#0 2690#0 2690#1 2690#2 2690#3 2690#4 2690#5"/>
 <route id="67" edges="-2930#1 -2930#0 2988#1 2690#0 2690#1 2690#2 2690#3 2690#4 2690#5 -2923 2960#0 2960#1 2960#2 2960#3 2960#4 3036#0 3036#1 3036#2 2772"/>
 <route id="68" edges="-2781#1 -2781#0 2949 2841#2 2884#0 -2788#0 -gneE35 2846#4 2846#5 2846#6 gneE6 -2807 2846#11 gneE37 2846#14 2840 2706#0 2706#1 2634#0 2634#1 -2891#1"/>
 <route id="69" edges="-2747#1 -2747#0 -2815#1 -2815#0 -2809#0 -2870#6 -2870#5 -2870#4 -2870#3 -2870#2 -2870#1 -2870#0 -2795#2 -2795#1 -2795#0 -2910 -2883 -2722 -2946#2 -2946#1 -2946#0 -gneE37 -2846#11 2807 gneE7 -2846#6 -2846#5 -2846#4 gneE35 2788#0 2750 -2674#1 -2674#0 -2814#6 -2623 -2624#1 -2624#0 -2733#1 -2733#0"/>
 <route id="70" edges="-2871 -3042#0 -2684#0 -2946#2 -2946#1 -2946#0 2846#14 2840 -2967#4 -2941 2878#1 2891#1"/>
 <route id="71" edges="-2690#0 2624#0 2624#1 2623 2814#6 2674#0 2674#1 -2750 -2788#0 -gneE35 2846#4 2846#5 2846#6 gneE6 -2807 2846#11 gneE37 2846#14 2840 2706#0 2706#1"/>
 <route id="72" edges="-2809#3 -2809#2 -2809#1 -2809#0 -2870#6 -2870#5 -2870#4 -2870#3 -2870#2 -2870#1 -2870#0 -2795#2 -2795#1 -2795#0 -2910 -2883 -2722 -2946#2 -2946#1 -2946#0 -gneE37 -2846#11 2807 gneE7 -2846#6 -2846#5 -2846#4 gneE35 2788#0 2750 -gneE36 -3040#1 -3040#0 2641#0 2685 -2685"/>
 <route id="73" edges="2933#1 3033 2875 2881#3 -2847#6 gneE10 -2735 -2847#0 gneE6 -2807 2846#11 gneE37 2946#0 -3022 -2737#1"/>
 <route id="74" edges="2832#0 2832#1 2690#3 2690#4 2690#5 -2923 2960#0 2960#1 2960#2 2960#3 2960#4 2960#5 2960#6 2631#3 2631#4 -2732#8 2785#0 2785#1 gneE101 2851#1 -2743#0 -2706#4 -2706#3 2768 2640"/>
 <route id="75" edges="-gneE95 -gneE94 -2695#1 -2846#5 -2846#4 gneE35 2788#0 -2884#0 -2841#2 -2841#1 -2841#0 -2759#1 -2759#0 -2690#5 -2690#4 -2690#3 -2832#1 -2651"/>
 <route id="76" edges="2962#1 -2809#2 -2809#1 -2809#0 -2870#6 -2870#5 -2870#4 -2870#3 -2870#2 -2870#1 -2870#0 -2795#2 -2795#1 -2795#0 -2910 -2883 -2722 -2946#2 -2946#1 -2946#0 -gneE37 -2846#11 2807 gneE7 -2846#6 -2846#5 -2846#4 gneE35 2788#0 2750 -2674#1 -2674#0 -2814#6 -2623 -2624#1 -2624#0 -2733#1 3035 2702#0 2961 2927 2892#0 2680"/>
 <route id="77" edges="-2705#1 2705#1 2705#2 gneE24 -2855#3 -2748 -2808 -2954 2788#0 2750 -gneE36 -3040#1 -3040#0"/>
 <route id="78" edges="-2967#2 2967#2 2967#3 2967#4 -2840 -2846#14 -gneE37 -2846#11 2807 gneE7 -2846#6 -2846#5 -2846#4 gneE35 2788#0 2750 -2674#1 -2674#0 -2814#6 -2814#5 -2814#4 2708 2833"/>
 <route id="79" edges="2782#1 -2782#1 -2782#0 -2915#1 gneE17 2986 2707#2 2846#6 gneE6 -2807 2846#11 gneE37 2946#0 -3022 2737#2 -2737#2"/>
 <route id="80" edges="2771 2687 2859 gneE10 -2735 -2847#0 gneE6 -2807 2846#11 gneE37 2946#0"/>
 <route id="81" edges="2980#3 2861#0 -2685 2641#1 -2806#1 2814#6 2674#0 2674#1 -2750 -2884#0 -2841#2 -2949 -2835#1"/>
 <route id="82" edges="3036#4 -3036#4 -2862#2 -2862#1 -2862#0 2990#1 2673 -2732#8 2785#0 2785#1 gneE101 2851#1 -2743#0 -2706#4 -2706#3 -2706#2 -2706#1 -2706#0 -2967#4 -2967#3 -2967#2 -2967#1 -2967#0 2795#0 -2664#5 -2857#2 2904 -2700#5"/>
 <route id="83" edges="2962#1 -2809#2 -2809#1 -2809#0 -2870#6 -2870#5 -2870#4 -2870#3 -2870#2 -2870#1 -2870#0 -2795#2 -2795#1 -2795#0 -2910 -2883 -2722 -2946#2 -2946#1 -3022 -2737#1 -2819"/>
 <route id="84" edges="gneE10 -2735 -2847#0 -2846#6 2695#1 gneE94 gneE95 gneE97 -2785#1 -2785#0 2732#8 -2631#4 2990#0 2862#0 2862#1 2862#2 3036#4 3036#5"/>
 <route id="85" edges="-3040#1 3040#1 gneE36 -2750 -2788#0 -gneE35 2846#4 2846#5 2846#6 gneE6 -2807 2846#11 gneE37 2946#0 -3022 2737#2 2819"/>
 <route id="86" edges="2964#1 -3014 2964#3 -2964#0 -2835#0 -2808 -2954 -gneE35 2846#4 2846#5 2846#6 gneE6 -2807 2846#11 gneE37 2946#0 2946#1 2946#2 2684#0 3042#0 3042#1 2771"/>
 <route id="87" edges="2814#2 2814#3 2814#4 2814#5 -2623 -2624#1 -2624#0 -2733#1 3035 2702#0 2961 -2961"/>
 <route id="88" edges="-2700#3 2636 2967#2 2967#3 2967#4 -2840 -2846#14 -gneE37 -2846#11 2807 gneE7"/>
 <route id="89" edges="gneE4 2653 -2698#2 -2698#1 -2698#0 -2870#6 -2870#5 -2870#4 -2870#3 -2870#2 -2870#1 -2870#0 -2795#2 -2795#1 -2795#0 -2910 -2883 -2722 -2946#2 -2946#1 -2946#0 -gneE37 -2846#11 2807 gneE7 -2846#6 -2846#5 -2846#4 gneE35 2788#0 2750 -2674#1 -2674#0 -2814#6 -2623 -2624#1 -2624#0 -2733#1 3035 2702#0 2961 2927"/>
 <route id="90" edges="-2706#1 -2706#0 -2840 -2846#14 -gneE37 2742#0 2742#1"/>
 <route id="91" edges="2625#1 -2963 -2782#0 -2915#1 gneE17 2986 2707#2 2846#6 gneE6 -2807 2846#11 gneE37 2946#0 2946#1 -2946#1"/>
 <route id="92" edges="-2706#1 -2706#0 -2840 -2846#14 -gneE37 2742#0 2742#1"/>
 <route id="93" edges="-2744#0 -3011#1 -3011#0 gneE41 -2780 2785#1 gneE101 2851#1 -2743#0 -2706#4 -2706#3 -2706#2 -2706#1 -2706#0 -2967#4 -2967#3 -2967#2 -2967#1 -2967#0 2795#0 2795#1 2795#2 2870#0 2870#1 2870#2 2870#3 2870#4 2870#5 2870#6 2809#0 2809#1 -gneE48 gneE50 -gneE54"/>
 <route id="94" edges="2891#1 -2634#1 -2634#0 -2706#1 -2706#0 -2967#4 -2967#3 -2967#2 -2967#1 -2967#0 2795#0 2795#1 2795#2 2870#0 2870#1 2870#2 2870#3 2870#4 2870#5"/>
 <route id="95" edges="2616 -2622 2777#2 -2855#3 -2748 -2808 -2954 -gneE35 2846#4 2846#5 2846#6 gneE6 -2807 2846#11 gneE37 2946#0 2946#1 -2856 2737#4"/>
 <route id="96" edges="-2986 2986 2707#2 -2846#5 -2846#4 gneE35 2788#0 -2884#0 -2841#2 -2841#1 -2841#0 -2759#1 -2759#0 -2690#5 -2690#4 -2690#3 -2832#1 -2651"/>
 <route id="97" edges="2933#1 3033 2875 2881#3 -2847#6 gneE10 -2735 -2847#0 -2846#6 2695#1 gneE94 gneE95 gneE97 -2785#1 -2785#0 -2732#7 -2732#6 -2732#4 2732#4"/>
 <route id="98" edges="-2705#2 2705#2 2732#0 2732#1 gneE33 -3018#0 2732#6 2732#7 2785#0 2785#1 gneE101 2851#1 -2743#0 -2706#4 -2706#3 -2706#2 -2706#1 -2706#0 -2967#4 -2967#3 -2967#2 -2967#1 -2967#0 2795#0 2795#1 2795#2 2870#0 2870#1 2870#2 2870#3 2870#4 2870#5 2870#6 2809#0 2809#1"/>
 <route id="99" edges="-2741#2 -2741#1 -2741#0 -2732#8 2785#0 2785#1 gneE101 2851#1 -2743#0 -2706#4 -2706#3 -2706#2 -2706#1 -2706#0 -2840 -2846#14 -gneE37 -2846#11 2807 gneE9 2773#2 -2926#3 -2926#2 -2926#1"/>
 <route id="100" edges="2656 -2656 -2782#1 -2782#0 -2625#4 2881#0 -2881#0"/>
 <route id="101" edges="-2777#2 2777#2 -2855#3 -2748 -2808 -2954 2788#0 -2788#0"/>
 <route id="102" edges="2912 -2980#0 2814#3 2814#4 2814#5 2814#6 2674#0 2674#1 -2750 -2788#0 -gneE35 2846#4 2846#5 2695#1 gneE94 gneE95 gneE97 -2785#1 2780"/>
 <route id="103" edges="2881#0 -2881#0 2625#4 -2915#1 gneE17 2986 2707#2 -2846#5 -2846#4 gneE35 2954 2808 2835#0 2964#0 -2964#3 2964#3"/>
 <route id="104" edges="2697 2857#1 2857#2 2664#5 -2795#0 -2910 -2883 -2722 -2946#2 -2946#1 -2946#0 -gneE37 -2846#11 2807 gneE9 -2907"/>
 <route id="105" edges="-2685"/>
 <route id="106" edges="-2684#0 -2946#2 -2946#1 -2946#0 -gneE37 -2846#11 2807 gneE7 -2846#6 -2846#5 -2846#4 gneE35 2788#0 2750 -gneE36 -3040#1"/>
 <route id="107" edges="2793#1 -2793#1 -2793#0 2707#0 2707#1 2707#2 -2846#5 -2846#4 gneE35 2788#0 -2884#0 -2841#2 -2841#1 -2841#0 -2759#1 -2759#0 -2690#5 2690#5"/>
 <route id="108" edges="-2980#3 -2980#2 -2980#1 -2980#0 2814#3 2814#4 2814#5 -2814#5"/>
 <route id="109" edges="2988#0 2988#1 2690#0 2690#1 2690#2 2690#3 2690#4 2690#5 -2923 2960#0 2960#1 2960#2 2960#3 2960#4 3036#0 3036#1 3036#2 3036#3 3036#4"/>
 <route id="110" edges="-2770 2770 3012#1 gneE4 -3007 -2962#0 -gneE67 gneE53 -gneE64 -gneE68 gneE69"/>
 <route id="111" edges="-2962#0 -2809#1 -2809#0 -2870#6 -2870#5 -2870#4 -2870#3 -2870#2 -2870#1 -2870#0 -2795#2 -2795#1 -2795#0 -2910 -2883 -2722 -2946#2 -2946#1 -2946#0 -gneE37 -2846#11 2807 gneE7 -2846#6 -2846#5 -2846#4 gneE35 2954 2808 2835#0 2964#0 2964#1 -2964#1"/>
 <route id="112" edges="-2706#1 2706#1 2706#2 2706#3 2706#4 2743#0 2743#1 2743#2 2743#3 -gneE42 gneE43 -2983#1 2644"/>
 <route id="113" edges="2712#3 gneE98 -2695#1 2846#6 gneE6 gneE9 2773#2 2773#3 -2934#3 2934#3"/>
 <route id="114" edges="-2685 2641#1 -2806#1 2814#6 2674#0 2674#1 -2750 -2788#0 -gneE35 2846#4 2846#5 -2707#2 -2986 gneE18 2915#1 2782#0 2963 2770"/>
 <route id="115" edges="2870#6 -2870#6 -2870#5 -2870#4 -2870#3 -2870#2 -2870#1 -2870#0 -2795#2 -2795#1 -2795#0 -2910 -2883 -2722 -2946#2 -2946#1 -2946#0 -gneE37 -2846#11 2807 gneE9 2773#2 2773#3 -3013#1"/>
 <route id="116" edges="-2747#1 -2747#0 -2815#1 -2815#0 -2809#0 -2870#6 -2870#5 -2870#4 -2870#3 -2870#2 -2870#1 -2870#0 -2795#2 -2795#1 -2795#0 2967#0 2967#1 2967#2 2967#3 -2967#3"/>
 <route id="117" edges="3012#0 -2770 -2963 -2782#0 -2915#1 gneE17 2986 2707#2 -2846#5 -2846#4 gneE35 2788#0 2750 -2674#1 -2674#0 -2814#6 -2623 -2624#1 2932#0 2932#1 -2790"/>
 <route id="118" edges="2771 2687 2859 gneE10 -2735 -2847#0 gneE6 -2807 2846#11 2742#0 2742#1 2742#2 2985#0 2985#1"/>
 <route id="119" edges="2819 2737#1 3022 -2946#0 2846#14 2840 2706#0 2706#1 2706#2 2706#3 2706#4 2743#0 -2851#1 gneE100 -gneE97 -gneE95"/>
 <route id="120" edges="-2665#1 -2665#0 -2741#2 -2741#1 -2741#0 -2732#8 2785#0 2785#1 -gneE97 -gneE95 -gneE94 -2695#1 -2846#5 -2846#4 gneE35 2788#0 2750 -2674#1 -2674#0 -2814#6 -2814#5 -2814#4 -2814#3 2980#0 -2980#0"/>
 <route id="121" edges="2781#1 -2670 -2860 2814#4 2814#5 2814#6 2674#0 2674#1 -2750 -2788#0 -gneE35 2846#4 2846#5 2846#6 gneE6 -2807 2846#11 gneE37 2946#0 2946#1 2946#2 2722 2883 2910 2795#0 2795#1 2795#2 2870#0 2870#1 2870#2 2870#3 2870#4 2870#5 2870#6 2809#0 2809#1"/>
 <route id="122" edges="2930#1 -2834 -2784 -2691#0 2690#1 2690#2 2690#3 2690#4 2690#5 -2923 2960#0 2960#1 2960#2 2960#3 2960#4 2960#5 2960#6 2631#3 2631#4 -2732#8 2785#0 2785#1 gneE101 2851#1 -2743#0 -2706#4 -2706#3 2768 2640 2827#0 -2974 -2644"/>
 <route id="123" edges="2674#1 -2750 -2884#0 -2841#2 -2841#1 -2841#0 2855#0 2787#0 2787#1 2945"/>
 <route id="124" edges="-2685 2641#1 -2806#1 -2814#5 -2814#4 2860 2670 -2781#1"/>
 <route id="125" edges="2737#4 -2745 -2716 2870#0 2870#1 2870#2 2870#3 2870#4 2870#5 2870#6 2809#0 2815#0 2815#1 2815#2 -gneE74 -gneE75 -gneE56 -gneE76 gneE73 gneE74"/>
 <route id="126" edges="2862#0 2862#1 2862#2 -3036#3 -3036#2 -3036#1 -3036#0 -2960#4 -2960#3 -2960#2 -2960#1 -2960#0 2923 2759#0 2759#1 2841#0 2841#1 2841#2 2884#0 2750 -gneE36 -3040#1 -3040#0 2641#0 2685 2861#1"/>
 <route id="127" edges="-2788#2 2710 -2674#0 -2814#6 -2814#5 -2814#4 2860 2670 -2781#1"/>
 <route id="128" edges="2737#4 -2745 -2716 -2795#2 -2795#1 -2795#0 -2910 -2883 -2722 -2946#2 -2946#1 -2946#0 -gneE37 -2846#11 2807 gneE7 -2846#6 -2846#5 -2846#4 gneE35 2788#0 -2788#0"/>
 <route id="129" edges="-2667#1 3004#0 3004#1 -2795#2 -2795#1 -2795#0 -2910 -2883 -2722 -2946#2 -2946#1 -2946#0 -gneE37 -2846#11 2807 gneE7 -2846#6 -2846#5 -2846#4 gneE35 2788#0 2750 -2674#1 -2674#0 -2814#6 -2814#5"/>
 <route id="130" edges="-2795#1 -2795#0 -2910 -2883 -2722 -2946#2 -2946#1 -2946#0 -gneE37 -2846#11 2807 gneE7 2847#0 2735 gneE11 2847#6 2847#7"/>
 <route id="131" edges="gneE22 -2944#1+2692#0 -3031 -2642#0 -2705#1 -2705#0 -2905#3"/>
 <route id="132" edges="2742#2 -2742#2 -2742#1 -2742#0 -2846#11 2807 gneE7 -2846#6 -2846#5 -2846#4 gneE35 2788#0 2750 -2674#1 -2674#0 -2814#6 -2623 -2624#1 -2624#0 -2733#1 3035 2702#0 2702#1"/>
 <route id="133" edges="3014 -3014 2964#3 -2964#0 -2835#0 -2808 -2954 -gneE35 2846#4 2846#5 2846#6 gneE6 -2807 2846#11 gneE37 2946#0 2946#1 2946#2 2722 2883 2910 2795#0 2795#1 2795#2 2870#0 2870#1 2870#2 2870#3 2870#4 2870#5 2870#6 2809#0 2809#1 -gneE48 gneE50"/>
 <route id="134" edges="2840 2706#0 2706#1 2706#2 2706#3 2706#4 2743#0 2743#1 2743#2 -2743#2"/>
 <route id="135" edges="2870#6 2809#0 2809#1 2809#2 gneE66 gneE67"/>
 <route id="136" edges="-2836#1 2902 -2904 2857#2 2664#5 -2795#0 2967#0 2967#1 2967#2 2967#3 2967#4 2706#0 2706#1 -2706#1"/>
 <route id="137" edges="2705#0 2705#1 2705#2 2732#0 2732#1 gneE33 -3018#0 2732#6 2732#7 2785#0 2785#1 gneE101 2851#1 -2743#0 -2706#4 -2706#3 -2706#2 -2706#1 -2706#0 -2967#4 -2967#3 -2967#2 -2967#1 -2967#0 2795#0 2795#1 2795#2 2870#0 2870#1 2870#2 2870#3 2870#4 2870#5 2870#6 2698#0"/>
 <route id="138" edges="2699 -2699 -2629 -2638 -2989 -2747#3 -2747#2"/>
 <route id="139" edges="-2776 2776 2722 2883 2910 2795#0 2795#1 2795#2 2870#0 2870#1 2870#2 2870#3 2870#4 2870#5 2870#6 2809#0 2809#1 2809#2 -2962#1"/>
 <route id="140" edges="-2862#0 2990#1 2673 -2732#8 2785#0 2785#1 gneE101 2851#1 -2743#0 -2706#4 -2706#3 -2706#2 -2706#1 -2706#0 -2967#4 -2967#3 -2967#2 -2967#1 -2967#0 2795#0 2795#1 2795#2 -3004#1 -3004#0 3004#0"/>
 <route id="141" edges="-2685 2641#1 -2806#1 2814#6 2674#0 2674#1 -2750 -2788#0 -gneE35 2846#4 2846#5 2846#6 gneE6 -2807 2846#11 gneE37 2946#0 2946#1 2946#2 2722 2883 2910 2795#0 2795#1 2795#2 2870#0 2870#1 2870#2 2870#3 2870#4 2870#5 2870#6 2809#0 2809#1 -gneE48 gneE50 -gneE54"/>
 <route id="142" edges="2915#1 -2915#1 gneE17 -2999#1 gneE11 2847#6 2847#7 -2826 2655#1 gneE1 -2699 -2629 -2638 -2989 -2747#3 -2747#2"/>
 <route id="143" edges="2634#1 -2634#1 -2634#0 -2706#1 -2706#0 -2840 -2846#14 -gneE37 -2846#11 2807 gneE7 -2846#6 2695#1 gneE94 gneE95"/>
 <route id="144" edges="gneE72 -gneE60 gneE56 gneE75 gneE74 -2815#2 -2815#1 -2815#0 -2809#0 -2870#6 -2870#5 -2870#4 -2870#3 -2870#2 -2870#1 -2870#0 -2795#2 -2795#1 -2795#0 2967#0 2967#1 2967#2 -2953 -2700#1 -2836#1"/>
 <route id="145" edges="-2741#2 -2741#1 -2741#0 -2631#4 -2631#3 -2960#6 -2960#5 -2960#4 -2960#3 -2960#2 -2960#1 -2960#0 -2691#6 -2691#5 -2691#4 2711#0 2651"/>
 <route id="146" edges="-2881#0 2625#4 -2915#1 gneE17 2986 2707#2 -2846#5 -2846#4 gneE35 2788#0 2750 -2674#1 -2674#0 -2814#6 -2814#5 -2814#4 2860 -2693"/>
 <route id="147" edges="-gneE94"/>
 <route id="148" edges="-2673 2673 -2732#8 2785#0 2785#1 -gneE97 -gneE95 -gneE94 -2695#1 2846#6 2847#0 2735 gneE11 2847#6 -2881#3 -2875"/>
 <route id="149" edges="-2644 2983#1 -gneE43 gneE44 gneE46 gneE40 -gneE38 -2732#6 3018#0 gneE34 -2631#1 -2631#0 2777#0 2777#1 2777#2 -2855#3 -2855#2 -2855#1"/>
 <route id="150" edges="2664#5 -2795#0 2967#0 2967#1 2967#2 2967#3 2967#4 2706#0 2706#1 2706#2 2706#3 2706#4 2743#0 -2851#1 gneE100 -2785#1 -2785#0 -2732#7 -2732#6 -2732#4 -2732#3 2786#0 2786#1 2705#0"/>
 <route id="151" edges="-2967#2 2967#2 2967#3 2967#4 -2840 -2846#14 -gneE37 -2846#11 2807 gneE7 -2846#6 -2846#5 -2846#4 gneE35 2788#0 2750 -2674#1 -2674#0 -2814#6 -2623 -2624#1 2932#0 2799#0 2997#0"/>
 <route id="152" edges="-2704 -2870#1 -2870#0 -2795#2 -2795#1 -2795#0 -2910 -2883 -2722 -2946#2 -2946#1 -2946#0 -gneE37 -2846#11 2807 gneE7 -2846#6 -2846#5 -2846#4 gneE35 2788#0 2750 -2674#1 -2674#0 -2814#6 -2623 -2624#1 -2624#0 -2733#1 3035 2702#0 2961 2927 2892#0 2680"/>
 <route id="153" edges="gneE101 2851#1 -2743#0 -2706#4 -2706#3 -2706#2 -2706#1 -2706#0 -2967#4 -2967#3 -2967#2 -2967#1 -2967#0 2795#0 2795#1 2795#2 2870#0 2870#1 2870#2 2870#3 -2870#3"/>
 <route id="154" edges="-2708 -2814#3 2980#0 2980#1 -2980#1"/>
 <route id="155" edges="2809#1 -2809#1 -2809#0 -2870#6 -2870#5 -2870#4 -2870#3 -2870#2 -2870#1 -2870#0 -2795#2 -2795#1 -2795#0 -2910 -2883 -2722 -2946#2 -2946#1 -2946#0 2846#14 2840"/>
 <route id="156" edges="-2685 2641#1 -2806#1 2814#6 2674#0 2674#1 -2750 -2788#0 -gneE35 2846#4 2846#5 2695#1 gneE94 gneE95 gneE97 -2785#1 -2785#0 2732#8 2741#0 2741#1 2741#2 -2741#2"/>
 <route id="157" edges="-2819 2737#3 2856 2946#2 2722 2883 2910 2795#0 2795#1 2795#2 2870#0 2870#1 2870#2 2870#3 2870#4 2870#5 2870#6 2809#0 2809#1 2962#0 2962#1"/>
 <route id="158" edges="2836#1 -2700#0 2967#4 -2840 -2846#14 -gneE37 -2846#11 2807 gneE7 -2846#6 -2846#5 -2846#4 gneE35 2788#0 2750 -2674#1 -2674#0 -2814#6 -2814#5 -2814#4 2708 2833"/>
 <route id="159" edges="2997#0 -2799#4 -2799#3 -2627 2623 2814#6 2674#0 2674#1 -2750 -2788#0 -gneE35 2846#4 2846#5 2846#6 gneE6 -2807 2846#11 gneE37 2946#0 2946#1 2946#2 2722 2883 2910 2795#0 2795#1 2795#2 2870#0 2870#1 2870#2 2870#3 2870#4 2870#5 2989 2638 2629 2828 -2828"/>
 <route id="160" edges="-3007 -2962#0 -2809#1 -2809#0 -2870#6 -2870#5 -2870#4 -2870#3 -2870#2 -2870#1 -2870#0 -2795#2 -2795#1 -2795#0 -2910 -2883 -2722 -2946#2 -2946#1 -2946#0 -gneE37 -2846#11 2807 gneE7 -2846#6 -2846#5 -2846#4 gneE35 2788#0 2750 -2674#1 -2674#0 -2814#6 -2623 -2624#1 -2624#0 -2733#1 3035 2702#0"/>
 <route id="161" edges="2690#0 2690#1 2690#2 2690#3 2690#4 2690#5 -2923 2960#0 2960#1 2960#2 2960#3 2960#4 2960#5 2960#6 2631#3 2631#4 -2732#8 2785#0 2785#1 gneE101 2851#1 -2743#0 -2706#4 -2706#3 -2706#2 -2706#1 -2706#0 -2967#4 2700#0 -2700#0"/>
 <route id="162" edges="-2781#2 -2670 -2860 2814#4 2814#5 2814#6 2674#0 2674#1 -2750 -2788#0 -gneE35 2846#4 2846#5 2846#6 gneE6 -2807 2846#11 gneE37 2846#14 2840 -2967#4 -2967#3 -2967#2 -2636"/>
 <route id="163" edges="-2651 2711#1 2690#4 2690#5 2759#0 2759#1 2841#0 2841#1 2841#2 2884#0 -2788#0 -gneE35 2846#4 2846#5 2846#6 gneE6 -2807 2846#11 gneE37 2946#0 2946#1 2946#2 2722 2883 2910 2795#0 -2664#5 -2664#4 -2664#3 -2664#2 -2664#0"/>
 <route id="164" edges="2781#1 -2670 -2860 2814#4 2814#5 2814#6 2674#0 2674#1 -2750 -2788#0 2954 2808 2748 2855#3 -2777#2 -2777#1 -2992 2732#1 gneE33 -3018#0 2732#6"/>
 <route id="165" edges="2946#1 2946#2 2722 2883 2910 2795#0 -2664#5 -2746#1 2626 -2890#0"/>
 <route id="166" edges="2733#1 2690#0 2690#1 2690#2 2690#3 2690#4 2690#5 -2923 2960#0 2960#1 2960#2 2960#3 2960#4 2960#5 2960#6 -2631#2 -2631#1 2734"/>
 <route id="167" edges="2810 -3037#0 3037#0"/>
 <route id="168" edges="2685 -2685 2641#1 -2806#1 2814#6 2674#0 2674#1 -2750 -2788#0 2954 2808 2748 2855#3 -2777#2 -2777#1 -2777#0 2631#0 2631#1 -2631#1"/>
 <route id="169" edges="-2926#3 2926#3 -2773#2 gneE8 gneE7 -2846#6 2846#6 gneE6"/>
 <route id="170" edges="2836#1 -2700#0 2967#4 -2840 -2846#14 -gneE37 -2846#11 2807 gneE7"/>
 <route id="171" edges="-2656 -2782#1 -2782#0 -2915#1 gneE17 2986 2707#2 2695#1 gneE94 gneE95 gneE97 gneE101 2851#1 -2743#0 -2706#4 -2706#3 2768 2640 2827#0 2827#1"/>
 <route id="172" edges="2747#1 2747#2 2747#3 -2870#5 -2870#4 -2870#3 -2870#2 -2870#1 -2870#0 -2795#2 -2795#1 -2795#0 -2910 -2883 -2722 -2946#2 -2946#1 -2946#0 -gneE37 -2846#11 2807 gneE9 2773#2 -2805"/>
 <route id="173" edges="2777#0 -2992 2732#1 -2732#1"/>
 <route id="174" edges="2925 2855#2 2855#3 -2777#2 -2777#1 -2777#0 2631#0 2734 2960#6 2631#3 2631#4 -2732#8 2785#0 2785#1 gneE101 2851#1 -2743#0 -2706#4 -2706#3 -2706#2 -2706#1 -2706#0 -2967#4 -2967#3 -2967#2 -2967#1 -2967#0 2795#0 -2664#5 2664#5"/>
 <route id="175" edges="2966#2 -2966#2 -2752 -2712#0 2946#0 2946#1 2946#2 2722 2883 2910 2795#0 -2664#5 -2857#2 2904 -2904"/>
 <route id="176" edges="2795#2 -2795#2 -2795#1 -2795#0 -2910 -2883 -2722 -2946#2 -2946#1 -2946#0 2712#0 2752 -2966#1 -2956 -2827#1"/>
 <route id="177" edges="-2985#1 -2985#0 -2742#2 -2742#1 -2742#0 -2846#11 2807 gneE7 -2846#6 -2846#5 -2846#4 gneE35 2788#0 2750 -2750"/>
 <route id="178" edges="-2742#1 -2742#0 gneE37 2846#14 2840 2706#0 2706#1 2706#2 2706#3 2706#4 2743#0 -2851#1 gneE100 -2785#1 -2785#0 -2732#7 -2732#6 -2732#4 -2732#3 2786#0 -2786#0"/>
 <route id="179" edges="2834 -2930#1 -2930#0 2988#1 2690#0 2690#1 2690#2 2690#3 2690#4 2690#5 -2923 2960#0 2960#1 2960#2 2960#3 2960#4 2960#5 2960#6 2631#3 2631#4 -2732#8 2785#0 2785#1 gneE101 2851#1 -2743#0 -2706#4 -2706#3 -2706#2 2634#0 2634#1 -2634#1"/>
 <route id="180" edges="3014 -3014 2964#3 -2964#0 -2835#0 2748 2855#3 -2777#2 -2777#1 -2777#0 2631#0 2734 2960#6 2631#3 2631#4 -2732#8 2785#0 2785#1 gneE101 2851#1 -2743#0 -2706#4 -2706#3 2768 2640 2827#0 2827#1"/>
 <route id="181" edges="-3004#1 3004#1 -2795#2 -2795#1 -2795#0 -2910 -2883 -2722 -2946#2 -2946#1 -2946#0 -gneE37 -2846#11 2807 gneE7 -2846#6 -2707#2 -2986 gneE18 2915#1 2782#0 2782#1 2656"/>
 <route id="182" edges="-2699 2699 gneE0 -2655#1 2826 -2847#7 -2847#6 gneE10 -2735 -2847#0 -2846#6 -2846#5 -2846#4 gneE35 2788#0 2750 -2674#1 -2674#0 -2814#6 -2814#5 -2814#4 2860 -2693"/>
 <route id="183" edges="-2999#1 2999#1 2713 2793#0 2793#1"/>
 <route id="184" edges="2926#1 -2926#1 -2926#0 2985#1"/>