<?xml version="1.0" encoding="UTF-8"?>

<!-- generated on do 08 nov 2018 11:45:19 CET by Netedit Version 0.32.0
<?xml version="1.0" encoding="UTF-8"?>

<configuration xmlns:xsi="http://www.w3.org/2001/XMLSchema-instance" xsi:noNamespaceSchemaLocation="http://sumo.dlr.de/xsd/netconvertConfiguration.xsd">

    <input>
        <sumo-net-file value="/home/della003/Desktop/SmartAgents/CrowdNav/app/map/ownr.net.xml"/>
    </input>

    <output>
        <output-file value="/home/della003/Desktop/SmartAgents/CrowdNav/app/map/ownr.net.xml"/>
    </output>

    <processing>
        <no-turnarounds value="true"/>
        <offset.disable-normalization value="true"/>
        <lefthand value="false"/>
        <junctions.corner-detail value="5"/>
        <rectangular-lane-cut value="false"/>
        <walkingareas value="false"/>
    </processing>

</configuration>
-->

<net version="0.27" junctionCornerDetail="5" xmlns:xsi="http://www.w3.org/2001/XMLSchema-instance" xsi:noNamespaceSchemaLocation="http://sumo.dlr.de/xsd/net_file.xsd">

    <location netOffset="0.00,0.00" convBoundary="-34.78,20.20,75.91,123.41" origBoundary="-10000000000.00,-10000000000.00,10000000000.00,10000000000.00" projParameter="!"/>

    <edge id=":gneJ22_0" function="internal">
        <lane id=":gneJ22_0_0" index="0" speed="100.00" length="0.17" shape="-11.59,122.28 -11.82,122.16"/>
        <lane id=":gneJ22_0_1" index="1" speed="100.00" length="0.17" shape="-10.16,119.31 -10.23,119.27"/>
    </edge>
    <edge id=":gneJ23_0" function="internal">
        <lane id=":gneJ23_0_0" index="0" speed="100.00" length="0.15" shape="-30.94,109.86 -31.10,109.74"/>
        <lane id=":gneJ23_0_1" index="1" speed="100.00" length="0.15" shape="-28.97,107.21 -29.03,107.17"/>
    </edge>
    <edge id=":gneJ24_0" function="internal">
        <lane id=":gneJ24_0_0" index="0" speed="100.00" length="0.29" shape="-38.77,88.76 -38.78,88.49"/>
        <lane id=":gneJ24_0_1" index="1" speed="100.00" length="0.29" shape="-35.47,88.61 -35.49,88.29"/>
    </edge>
    <edge id=":gneJ25_0" function="internal">
        <lane id=":gneJ25_0_0" index="0" speed="100.00" length="0.23" shape="-39.17,63.64 -39.08,63.30"/>
        <lane id=":gneJ25_0_1" index="1" speed="100.00" length="0.23" shape="-35.95,64.36 -35.92,64.25"/>
    </edge>
    <edge id=":gneJ26_0" function="internal">
        <lane id=":gneJ26_0_0" index="0" speed="100.00" length="0.23" shape="-29.93,42.73 -29.71,42.46"/>
        <lane id=":gneJ26_0_1" index="1" speed="100.00" length="0.23" shape="-27.28,44.70 -27.20,44.61"/>
    </edge>
    <edge id=":gneJ27_0" function="internal">
        <lane id=":gneJ27_0_0" index="0" speed="100.00" length="0.15" shape="-15.29,28.90 -15.13,28.79"/>
        <lane id=":gneJ27_0_1" index="1" speed="100.00" length="0.15" shape="-13.42,31.62 -13.37,31.58"/>
    </edge>
    <edge id=":gneJ28_0" function="internal">
        <lane id=":gneJ28_0_0" index="0" speed="100.00" length="0.18" shape="7.55,17.53 7.81,17.47"/>
        <lane id=":gneJ28_0_1" index="1" speed="100.00" length="0.18" shape="8.42,20.72 8.50,20.70"/>
    </edge>
    <edge id=":gneJ29_0" function="internal">
        <lane id=":gneJ29_0_0" index="0" speed="100.00" length="0.29" shape="25.51,15.33 25.82,15.35"/>
        <lane id=":gneJ29_0_1" index="1" speed="100.00" length="0.29" shape="25.32,18.63 25.60,18.64"/>
    </edge>
    <edge id=":gneJ30_0" function="internal">
        <lane id=":gneJ30_0_0" index="0" speed="100.00" length="0.14" shape="54.73,23.34 54.85,23.46"/>
        <lane id=":gneJ30_0_1" index="1" speed="100.00" length="0.14" shape="52.42,25.70 52.46,25.74"/>
    </edge>
    <edge id=":gneJ31_0" function="internal">
        <lane id=":gneJ31_0_0" index="0" speed="100.00" length="0.30" shape="66.34,36.78 66.53,37.03"/>
        <lane id=":gneJ31_0_1" index="1" speed="100.00" length="0.30" shape="63.70,38.75 63.86,38.97"/>
    </edge>
    <edge id=":gneJ32_0" function="internal">
        <lane id=":gneJ32_0_0" index="0" speed="100.00" length="0.68" shape="79.39,58.00 79.47,58.29 79.52,58.49 79.55,58.70 79.57,59.00"/>
        <lane id=":gneJ32_0_1" index="1" speed="100.00" length="0.68" shape="76.22,58.94 76.25,59.03 76.27,59.10 76.28,59.17 76.28,59.26"/>
    </edge>
    <edge id=":gneJ33_0" function="internal">
        <lane id=":gneJ33_0_0" index="0" speed="100.00" length="0.36" shape="80.85,75.81 80.86,75.97 80.86,76.08 80.86,76.19 80.86,76.35"/>
        <lane id=":gneJ33_0_1" index="1" speed="100.00" length="0.36" shape="77.56,76.05 77.56,76.10 77.56,76.13 77.56,76.17 77.56,76.22"/>
    </edge>
    <edge id=":gneJ34_0" function="internal">
        <lane id=":gneJ34_0_0" index="0" speed="100.00" length="0.29" shape="76.53,97.84 76.42,98.13"/>
        <lane id=":gneJ34_0_1" index="1" speed="100.00" length="0.29" shape="73.44,96.69 73.34,96.94"/>
    </edge>
    <edge id=":gneJ35_0" function="internal">
        <lane id=":gneJ35_0_0" index="0" speed="100.00" length="0.47" shape="67.28,115.93 67.13,116.08 67.02,116.18 66.91,116.28 66.75,116.41"/>
        <lane id=":gneJ35_0_1" index="1" speed="100.00" length="0.47" shape="64.90,113.64 64.86,113.69 64.82,113.72 64.79,113.75 64.73,113.79"/>
    </edge>
    <edge id=":gneJ36_0" function="internal">
        <lane id=":gneJ36_0_0" index="0" speed="100.00" length="0.26" shape="49.76,125.57 49.39,125.68"/>
        <lane id=":gneJ36_0_1" index="1" speed="100.00" length="0.26" shape="48.73,122.44 48.61,122.47"/>
    </edge>
    <edge id=":gneJ37_0" function="internal">
        <lane id=":gneJ37_0_0" index="0" speed="100.00" length="0.11" shape="30.72,128.36 30.59,128.36"/>
        <lane id=":gneJ37_0_1" index="1" speed="100.00" length="0.11" shape="30.70,125.06 30.66,125.06"/>
    </edge>

    <edge id="gneE18" from="gneJ22" to="gneJ23" priority="-1" shape="-9.44,117.82 -10.50,117.24 -12.12,116.29 -14.14,115.04 -16.42,113.60 -18.84,112.05 -21.25,110.49 -23.51,109.00 -25.48,107.68 -27.02,106.61 -27.99,105.89">
        <lane id="gneE18_0" index="0" speed="100.00" length="22.52" shape="-11.82,122.16 -12.95,121.54 -14.68,120.53 -16.77,119.24 -19.08,117.78 -21.52,116.21 -23.96,114.63 -26.25,113.12 -28.27,111.77 -29.89,110.64 -30.94,109.86"/>
        <lane id="gneE18_1" index="1" speed="100.00" length="22.52" shape="-10.23,119.27 -11.32,118.67 -12.97,117.70 -15.02,116.44 -17.31,114.99 -19.73,113.44 -22.15,111.87 -24.42,110.37 -26.41,109.04 -27.98,107.95 -28.97,107.21"/>
    </edge>
    <edge id="gneE19" from="gneJ23" to="gneJ24" priority="-1" shape="-27.99,105.89 -29.29,104.84 -30.43,103.46 -31.41,101.76 -32.22,99.73 -32.87,97.37 -33.35,94.69 -33.67,91.69 -33.83,88.36">
        <lane id="gneE19_0" index="0" speed="100.00" length="21.75" shape="-31.10,109.74 -32.79,108.38 -34.51,106.29 -35.88,103.92 -36.92,101.31 -37.70,98.47 -38.25,95.39 -38.61,92.07 -38.77,88.76"/>
        <lane id="gneE19_1" index="1" speed="100.00" length="21.75" shape="-29.03,107.17 -30.46,106.02 -31.79,104.40 -32.90,102.48 -33.79,100.26 -34.48,97.74 -34.98,94.92 -35.32,91.82 -35.47,88.61"/>
    </edge>
    <edge id="gneE20" from="gneJ24" to="gneJ25" priority="-1" shape="-33.83,88.36 -33.91,87.05 -34.05,85.03 -34.23,82.47 -34.41,79.55 -34.58,76.45 -34.72,73.37 -34.78,70.47 -34.76,67.94 -34.62,65.97 -34.34,64.73">
        <lane id="gneE20_0" index="0" speed="100.00" length="24.46" shape="-38.78,88.49 -38.85,87.38 -38.99,85.38 -39.17,82.79 -39.35,79.84 -39.52,76.70 -39.67,73.54 -39.73,70.51 -39.71,67.74 -39.53,65.25 -39.17,63.64"/>
        <lane id="gneE20_1" index="1" speed="100.00" length="24.46" shape="-35.49,88.29 -35.56,87.16 -35.70,85.15 -35.88,82.58 -36.06,79.65 -36.23,76.53 -36.37,73.43 -36.43,70.48 -36.41,67.87 -36.26,65.73 -35.95,64.36"/>
    </edge>
    <edge id="gneE21" from="gneJ25" to="gneJ26" priority="-1" shape="-34.34,64.73 -33.96,63.47 -33.27,61.51 -32.33,59.06 -31.23,56.33 -30.04,53.52 -28.84,50.85 -27.71,48.51 -26.72,46.72 -25.95,45.68">
        <lane id="gneE21_0" index="0" speed="100.00" length="22.02" shape="-39.08,63.30 -38.66,61.91 -37.91,59.79 -36.94,57.25 -35.80,54.44 -34.58,51.54 -33.33,48.76 -32.11,46.23 -30.89,44.04 -29.93,42.73"/>
        <lane id="gneE21_1" index="1" speed="100.00" length="22.02" shape="-35.92,64.25 -35.53,62.95 -34.82,60.94 -33.87,58.46 -32.75,55.70 -31.55,52.86 -30.34,50.15 -29.18,47.75 -28.11,45.83 -27.28,44.70"/>
    </edge>
    <edge id="gneE22" from="gneJ26" to="gneJ27" priority="-1" shape="-25.95,45.68 -25.06,44.64 -23.56,43.06 -21.63,41.12 -19.48,39.02 -17.30,36.96 -15.27,35.14 -13.61,33.75 -12.49,32.98">
        <lane id="gneE22_0" index="0" speed="100.00" length="19.40" shape="-29.71,42.46 -28.74,41.32 -27.11,39.61 -25.11,37.60 -22.91,35.45 -20.65,33.32 -18.52,31.41 -16.61,29.80 -15.29,28.90"/>
        <lane id="gneE22_1" index="1" speed="100.00" length="19.40" shape="-27.20,44.61 -26.29,43.53 -24.74,41.91 -22.79,39.95 -20.62,37.83 -18.42,35.75 -16.35,33.90 -14.61,32.43 -13.42,31.62"/>
    </edge>
    <edge id="gneE23" from="gneJ27" to="gneJ28" priority="-1" shape="-12.49,32.98 -11.38,32.28 -9.61,31.26 -7.36,30.00 -4.77,28.60 -2.01,27.15 0.77,25.74 3.40,24.46 5.73,23.40 7.60,22.65 8.85,22.31">
        <lane id="gneE23_0" index="0" speed="100.00" length="24.89" shape="-15.13,28.79 -13.92,28.03 -12.05,26.95 -9.74,25.66 -7.10,24.23 -4.28,22.75 -1.43,21.31 1.29,19.98 3.77,18.85 6.02,17.95 7.55,17.53"/>
        <lane id="gneE23_1" index="1" speed="100.00" length="24.89" shape="-13.37,31.58 -12.23,30.86 -10.42,29.82 -8.15,28.55 -5.55,27.14 -2.77,25.68 0.04,24.26 2.70,22.97 5.08,21.88 7.07,21.08 8.42,20.72"/>
    </edge>
    <edge id="gneE24" from="gneJ28" to="gneJ29" priority="-1" shape="8.85,22.31 10.29,22.00 12.65,21.58 15.56,21.12 18.65,20.69 21.56,20.36 23.92,20.20 25.36,20.28">
        <lane id="gneE24_0" index="0" speed="100.00" length="17.43" shape="7.81,17.47 9.36,17.14 11.83,16.70 14.83,16.22 18.03,15.78 21.11,15.43 23.89,15.24 25.51,15.33"/>
        <lane id="gneE24_1" index="1" speed="100.00" length="17.43" shape="8.50,20.70 9.98,20.38 12.38,19.95 15.32,19.49 18.44,19.05 21.41,18.72 23.91,18.55 25.32,18.63"/>
    </edge>
    <edge id="gneE25" from="gneJ29" to="gneJ30" priority="-1" shape="25.36,20.28 28.78,20.51 31.98,20.79 34.94,21.13 37.68,21.54 40.18,22.00 42.45,22.52 44.50,23.10 46.31,23.74 47.90,24.43 49.25,25.19 50.38,26.01 51.27,26.88">
        <lane id="gneE25_0" index="0" speed="100.00" length="29.44" shape="25.82,15.35 29.16,15.57 32.48,15.86 35.59,16.22 38.49,16.66 41.18,17.15 43.68,17.72 46.00,18.38 48.12,19.13 50.11,19.99 51.93,21.02 53.58,22.22 54.73,23.34"/>
        <lane id="gneE25_1" index="1" speed="100.00" length="29.44" shape="25.60,18.64 28.91,18.86 32.15,19.15 35.16,19.49 37.95,19.91 40.51,20.38 42.86,20.92 45.00,21.53 46.91,22.20 48.64,22.95 50.14,23.80 51.45,24.75 52.42,25.70"/>
    </edge>
    <edge id="gneE26" from="gneJ30" to="gneJ31" priority="-1" shape="51.27,26.88 52.31,27.97 53.96,29.79 55.96,32.04 58.06,34.45 60.01,36.74 61.55,38.63 62.45,39.84">
        <lane id="gneE26_0" index="0" speed="100.00" length="17.40" shape="54.85,23.46 55.94,24.61 57.65,26.49 59.68,28.77 61.81,31.22 63.81,33.57 65.44,35.57 66.34,36.78"/>
        <lane id="gneE26_1" index="1" speed="100.00" length="17.40" shape="52.46,25.74 53.52,26.85 55.19,28.69 57.20,30.95 59.31,33.37 61.28,35.68 62.85,37.61 63.70,38.75"/>
    </edge>
    <edge id="gneE27" from="gneJ31" to="gneJ32" priority="-1" shape="62.45,39.84 63.20,40.87 64.36,42.49 65.80,44.54 67.42,46.90 69.11,49.41 70.75,51.94 72.24,54.35 73.45,56.48 74.29,58.22 74.64,59.40">
        <lane id="gneE27_0" index="0" speed="100.00" length="24.12" shape="66.53,37.03 67.22,37.98 68.40,39.63 69.87,41.72 71.51,44.12 73.24,46.68 74.93,49.29 76.49,51.82 77.84,54.18 78.92,56.43 79.39,58.00"/>
        <lane id="gneE27_1" index="1" speed="100.00" length="24.12" shape="63.86,38.97 64.54,39.91 65.71,41.54 67.16,43.60 68.78,45.97 70.49,48.50 72.14,51.06 73.66,53.51 74.91,55.71 75.83,57.62 76.22,58.94"/>
    </edge>
    <edge id="gneE28" from="gneJ32" to="gneJ33" priority="-1" shape="74.64,59.40 74.74,60.66 74.93,63.05 75.17,66.13 75.42,69.43 75.65,72.50 75.82,74.90 75.91,76.16">
        <lane id="gneE28_0" index="0" speed="100.00" length="16.84" shape="79.57,59.00 79.67,60.27 79.86,62.66 80.11,65.75 80.36,69.06 80.59,72.14 80.76,74.55 80.85,75.81"/>
        <lane id="gneE28_1" index="1" speed="100.00" length="16.84" shape="76.28,59.26 76.38,60.53 76.57,62.92 76.82,66.00 77.07,69.31 77.30,72.38 77.47,74.78 77.56,76.05"/>
    </edge>
    <edge id="gneE29" from="gneJ33" to="gneJ34" priority="-1" shape="75.91,76.16 75.86,77.45 75.60,79.46 75.19,81.99 74.67,84.83 74.07,87.76 73.45,90.58 72.85,93.07 72.30,95.02 71.85,96.23">
        <lane id="gneE29_0" index="0" speed="100.00" length="21.45" shape="80.86,76.35 80.80,77.86 80.50,80.18 80.07,82.83 79.53,85.77 78.91,88.79 78.27,91.69 77.64,94.31 77.01,96.56 76.53,97.84"/>
        <lane id="gneE29_1" index="1" speed="100.00" length="21.45" shape="77.56,76.22 77.51,77.59 77.23,79.70 76.82,82.27 76.29,85.14 75.68,88.10 75.06,90.95 74.45,93.48 73.87,95.53 73.44,96.69"/>
    </edge>
    <edge id="gneE30" from="gneJ34" to="gneJ35" priority="-1" shape="71.85,96.23 71.36,97.50 70.53,99.52 69.46,102.03 68.24,104.75 66.96,107.43 65.72,109.79 64.61,111.57 63.72,112.49">
        <lane id="gneE30_0" index="0" speed="100.00" length="19.47" shape="76.42,98.13 75.95,99.34 75.09,101.43 73.99,104.02 72.73,106.83 71.39,109.65 70.02,112.25 68.53,114.63 67.28,115.93"/>
        <lane id="gneE30_1" index="1" speed="100.00" length="19.47" shape="73.34,96.94 72.89,98.11 72.05,100.16 70.97,102.69 69.74,105.44 68.44,108.17 67.15,110.61 65.92,112.59 64.90,113.64"/>
    </edge>
    <edge id="gneE31" from="gneJ35" to="gneJ36" priority="-1" shape="63.72,112.49 62.49,113.44 60.36,114.79 57.66,116.35 54.75,117.94 51.98,119.35 49.68,120.39 48.22,120.87">
        <lane id="gneE31_0" index="0" speed="100.00" length="18.81" shape="66.75,116.41 65.33,117.50 62.92,119.03 60.08,120.67 57.06,122.32 54.12,123.81 51.48,125.01 49.76,125.57"/>
        <lane id="gneE31_1" index="1" speed="100.00" length="18.81" shape="64.73,113.79 63.44,114.79 61.21,116.20 58.47,117.79 55.52,119.40 52.69,120.84 50.28,121.93 48.73,122.44"/>
    </edge>
    <edge id="gneE32" from="gneJ36" to="gneJ37" priority="-1" shape="48.22,120.87 46.70,121.24 44.21,121.73 41.13,122.26 37.85,122.76 34.76,123.16 32.24,123.40 30.69,123.41">
        <lane id="gneE32_0" index="0" speed="100.00" length="18.51" shape="49.39,125.68 47.76,126.08 45.10,126.60 41.92,127.15 38.54,127.66 35.32,128.08 32.49,128.35 30.72,128.36"/>
        <lane id="gneE32_1" index="1" speed="100.00" length="18.51" shape="48.61,122.47 47.05,122.85 44.51,123.35 41.39,123.89 38.08,124.39 34.95,124.80 32.32,125.05 30.70,125.06"/>
    </edge>
    <edge id="gneE33" from="gneJ37" to="gneJ22" priority="-1" shape="30.69,123.41 29.68,123.39 28.30,123.33 26.57,123.22 24.56,123.07 22.30,122.89 19.84,122.66 17.23,122.41 14.51,122.13 11.72,121.82 8.92,121.48 6.16,121.13 3.46,120.75 0.89,120.36 -1.51,119.96 -3.71,119.54 -5.64,119.12 -7.27,118.69 -8.55,118.25 -9.44,117.82">
        <lane id="gneE33_0" index="0" speed="100.00" length="42.07" shape="30.59,128.36 29.51,128.34 28.03,128.27 26.23,128.16 24.18,128.01 21.87,127.82 19.37,127.59 16.74,127.34 13.98,127.05 11.15,126.74 8.31,126.39 5.50,126.04 2.74,125.65 0.11,125.25 -2.38,124.83 -4.70,124.39 -6.79,123.93 -8.69,123.43 -10.44,122.84 -11.59,122.28"/>
        <lane id="gneE33_1" index="1" speed="100.00" length="42.07" shape="30.66,125.06 29.62,125.04 28.21,124.98 26.46,124.87 24.43,124.72 22.16,124.53 19.68,124.30 17.07,124.05 14.33,123.77 11.53,123.46 8.72,123.12 5.94,122.77 3.22,122.38 0.63,121.99 -1.80,121.58 -4.04,121.16 -6.02,120.72 -7.74,120.27 -9.18,119.78 -10.16,119.31"/>
    </edge>

    <junction id="gneJ22" type="priority" x="-9.44" y="117.82" incLanes="gneE33_0 gneE33_1" intLanes=":gneJ22_0_0 :gneJ22_0_1" shape="-12.29,123.72 -9.46,117.86 -12.58,123.57">
        <request index="0" response="00" foes="00" cont="0"/>
        <request index="1" response="00" foes="00" cont="0"/>
    </junction>
    <junction id="gneJ23" type="priority" x="-27.99" y="105.89" incLanes="gneE18_0 gneE18_1" intLanes=":gneJ23_0_0 :gneJ23_0_1" shape="-31.85,111.18 -27.97,105.96 -28.05,105.91 -32.15,110.95">
        <request index="0" response="00" foes="00" cont="0"/>
        <request index="1" response="00" foes="00" cont="0"/>
    </junction>
    <junction id="gneJ24" type="priority" x="-33.83" y="88.36" incLanes="gneE19_0 gneE19_1" intLanes=":gneJ24_0_0 :gneJ24_0_1" shape="-40.36,88.84 -33.87,88.53 -33.89,88.41 -33.89,88.36 -33.89,88.27 -40.38,88.59">
        <request index="0" response="00" foes="00" cont="0"/>
        <request index="1" response="00" foes="00" cont="0"/>
    </junction>
    <junction id="gneJ25" type="priority" x="-34.34" y="64.73" incLanes="gneE20_0 gneE20_1" intLanes=":gneJ25_0_0 :gneJ25_0_1" shape="-34.39,64.72 -40.61,62.84 -40.67,63.00 -40.68,63.06 -40.71,63.19">
        <request index="0" response="00" foes="00" cont="0"/>
        <request index="1" response="00" foes="00" cont="0"/>
    </junction>
    <junction id="gneJ26" type="priority" x="-25.95" y="45.68" incLanes="gneE21_0 gneE21_1" intLanes=":gneJ26_0_0 :gneJ26_0_1" shape="-25.99,45.65 -30.93,41.42 -31.04,41.55 -31.08,41.59 -31.16,41.70">
        <request index="0" response="00" foes="00" cont="0"/>
        <request index="1" response="00" foes="00" cont="0"/>
    </junction>
    <junction id="gneJ27" type="priority" x="-12.49" y="32.98" incLanes="gneE22_0 gneE22_1" intLanes=":gneJ27_0_0 :gneJ27_0_1" shape="-12.47,32.91 -15.93,27.41 -16.05,27.48 -16.09,27.50 -16.18,27.57 -12.56,32.97">
        <request index="0" response="00" foes="00" cont="0"/>
        <request index="1" response="00" foes="00" cont="0"/>
    </junction>
    <junction id="gneJ28" type="priority" x="8.85" y="22.31" incLanes="gneE23_0 gneE23_1" intLanes=":gneJ28_0_0 :gneJ28_0_1" shape="8.84,22.26 7.47,15.91 7.34,15.93 7.20,15.97">
        <request index="0" response="00" foes="00" cont="0"/>
        <request index="1" response="00" foes="00" cont="0"/>
    </junction>
    <junction id="gneJ29" type="priority" x="25.36" y="20.28" incLanes="gneE24_0 gneE24_1" intLanes=":gneJ29_0_0 :gneJ29_0_1" shape="25.49,20.24 25.93,13.75 25.81,13.73 25.76,13.73 25.67,13.73 25.24,20.22">
        <request index="0" response="00" foes="00" cont="0"/>
        <request index="1" response="00" foes="00" cont="0"/>
    </junction>
    <junction id="gneJ30" type="priority" x="51.27" y="26.88" incLanes="gneE25_0 gneE25_1" intLanes=":gneJ30_0_0 :gneJ30_0_1" shape="51.35,26.89 56.05,22.40 55.80,22.15 51.26,26.80">
        <request index="0" response="00" foes="00" cont="0"/>
        <request index="1" response="00" foes="00" cont="0"/>
    </junction>
    <junction id="gneJ31" type="priority" x="62.45" y="39.84" incLanes="gneE26_0 gneE26_1" intLanes=":gneJ31_0_0 :gneJ31_0_1" shape="62.57,39.92 67.82,36.09 67.63,35.82 62.41,39.70">
        <request index="0" response="00" foes="00" cont="0"/>
        <request index="1" response="00" foes="00" cont="0"/>
    </junction>
    <junction id="gneJ32" type="priority" x="74.64" y="59.40" incLanes="gneE27_0 gneE27_1" intLanes=":gneJ32_0_0 :gneJ32_0_1" shape="74.69,59.39 81.17,58.88 81.12,58.37 81.10,58.20 81.06,58.03 81.00,57.82 80.92,57.54">
        <request index="0" response="00" foes="00" cont="0"/>
        <request index="1" response="00" foes="00" cont="0"/>
    </junction>
    <junction id="gneJ33" type="priority" x="75.91" y="76.16" incLanes="gneE28_0 gneE28_1" intLanes=":gneJ33_0_0 :gneJ33_0_1" shape="82.44,75.70 75.96,76.16 82.46,76.41 82.46,76.15 82.46,76.05 82.46,75.96">
        <request index="0" response="00" foes="00" cont="0"/>
        <request index="1" response="00" foes="00" cont="0"/>
    </junction>
    <junction id="gneJ34" type="priority" x="71.85" y="96.23" incLanes="gneE29_0 gneE29_1" intLanes=":gneJ34_0_0 :gneJ34_0_1" shape="78.03,98.40 71.94,96.13 71.92,96.22 71.87,96.32 77.92,98.71">
        <request index="0" response="00" foes="00" cont="0"/>
        <request index="1" response="00" foes="00" cont="0"/>
    </junction>
    <junction id="gneJ35" type="priority" x="63.72" y="112.49" incLanes="gneE30_0 gneE30_1" intLanes=":gneJ35_0_0 :gneJ35_0_1" shape="68.43,117.05 63.75,112.53 67.73,117.67 68.00,117.46 68.09,117.38 68.18,117.29 68.29,117.19">
        <request index="0" response="00" foes="00" cont="0"/>
        <request index="1" response="00" foes="00" cont="0"/>
    </junction>
    <junction id="gneJ36" type="priority" x="48.22" y="120.87" incLanes="gneE31_0 gneE31_1" intLanes=":gneJ36_0_0 :gneJ36_0_1" shape="50.26,127.09 48.23,120.92 49.77,127.23">
        <request index="0" response="00" foes="00" cont="0"/>
        <request index="1" response="00" foes="00" cont="0"/>
    </junction>
    <junction id="gneJ37" type="priority" x="30.69" y="123.41" incLanes="gneE32_0 gneE32_1" intLanes=":gneJ37_0_0 :gneJ37_0_1" shape="30.82,129.96 30.78,123.46 30.71,123.46 30.64,123.46 30.47,129.96">
        <request index="0" response="00" foes="00" cont="0"/>
        <request index="1" response="00" foes="00" cont="0"/>
    </junction>

    <connection from="gneE18" to="gneE19" fromLane="0" toLane="0" via=":gneJ23_0_0" dir="s" state="M"/>
    <connection from="gneE18" to="gneE19" fromLane="1" toLane="1" via=":gneJ23_0_1" dir="s" state="M"/>
    <connection from="gneE19" to="gneE20" fromLane="0" toLane="0" via=":gneJ24_0_0" dir="s" state="M"/>
    <connection from="gneE19" to="gneE20" fromLane="1" toLane="1" via=":gneJ24_0_1" dir="s" state="M"/>
    <connection from="gneE20" to="gneE21" fromLane="0" toLane="0" via=":gneJ25_0_0" dir="s" state="M"/>
    <connection from="gneE20" to="gneE21" fromLane="1" toLane="1" via=":gneJ25_0_1" dir="s" state="M"/>
    <connection from="gneE21" to="gneE22" fromLane="0" toLane="0" via=":gneJ26_0_0" dir="s" state="M"/>
    <connection from="gneE21" to="gneE22" fromLane="1" toLane="1" via=":gneJ26_0_1" dir="s" state="M"/>
    <connection from="gneE22" to="gneE23" fromLane="0" toLane="0" via=":gneJ27_0_0" dir="s" state="M"/>
    <connection from="gneE22" to="gneE23" fromLane="1" toLane="1" via=":gneJ27_0_1" dir="s" state="M"/>
    <connection from="gneE23" to="gneE24" fromLane="0" toLane="0" via=":gneJ28_0_0" dir="s" state="M"/>
    <connection from="gneE23" to="gneE24" fromLane="1" toLane="1" via=":gneJ28_0_1" dir="s" state="M"/>
    <connection from="gneE24" to="gneE25" fromLane="0" toLane="0" via=":gneJ29_0_0" dir="s" state="M"/>
    <connection from="gneE24" to="gneE25" fromLane="1" toLane="1" via=":gneJ29_0_1" dir="s" state="M"/>
    <connection from="gneE25" to="gneE26" fromLane="0" toLane="0" via=":gneJ30_0_0" dir="s" state="M"/>
    <connection from="gneE25" to="gneE26" fromLane="1" toLane="1" via=":gneJ30_0_1" dir="s" state="M"/>
    <connection from="gneE26" to="gneE27" fromLane="0" toLane="0" via=":gneJ31_0_0" dir="s" state="M"/>
    <connection from="gneE26" to="gneE27" fromLane="1" toLane="1" via=":gneJ31_0_1" dir="s" state="M"/>
    <connection from="gneE27" to="gneE28" fromLane="0" toLane="0" via=":gneJ32_0_0" dir="s" state="M"/>
    <connection from="gneE27" to="gneE28" fromLane="1" toLane="1" via=":gneJ32_0_1" dir="s" state="M"/>
    <connection from="gneE28" to="gneE29" fromLane="0" toLane="0" via=":gneJ33_0_0" dir="s" state="M"/>
    <connection from="gneE28" to="gneE29" fromLane="1" toLane="1" via=":gneJ33_0_1" dir="s" state="M"/>
    <connection from="gneE29" to="gneE30" fromLane="0" toLane="0" via=":gneJ34_0_0" dir="s" state="M"/>
    <connection from="gneE29" to="gneE30" fromLane="1" toLane="1" via=":gneJ34_0_1" dir="s" state="M"/>
    <connection from="gneE30" to="gneE31" fromLane="0" toLane="0" via=":gneJ35_0_0" dir="s" state="M"/>
    <connection from="gneE30" to="gneE31" fromLane="1" toLane="1" via=":gneJ35_0_1" dir="s" state="M"/>
    <connection from="gneE31" to="gneE32" fromLane="0" toLane="0" via=":gneJ36_0_0" dir="s" state="M"/>
    <connection from="gneE31" to="gneE32" fromLane="1" toLane="1" via=":gneJ36_0_1" dir="s" state="M"/>
    <connection from="gneE32" to="gneE33" fromLane="0" toLane="0" via=":gneJ37_0_0" dir="s" state="M"/>
    <connection from="gneE32" to="gneE33" fromLane="1" toLane="1" via=":gneJ37_0_1" dir="s" state="M"/>
    <connection from="gneE33" to="gneE18" fromLane="0" toLane="0" via=":gneJ22_0_0" dir="s" state="M"/>
    <connection from="gneE33" to="gneE18" fromLane="1" toLane="1" via=":gneJ22_0_1" dir="s" state="M"/>

    <connection from=":gneJ22_0" to="gneE18" fromLane="0" toLane="0" dir="s" state="M"/>
    <connection from=":gneJ22_0" to="gneE18" fromLane="1" toLane="1" dir="s" state="M"/>
    <connection from=":gneJ23_0" to="gneE19" fromLane="0" toLane="0" dir="s" state="M"/>
    <connection from=":gneJ23_0" to="gneE19" fromLane="1" toLane="1" dir="s" state="M"/>
    <connection from=":gneJ24_0" to="gneE20" fromLane="0" toLane="0" dir="s" state="M"/>
    <connection from=":gneJ24_0" to="gneE20" fromLane="1" toLane="1" dir="s" state="M"/>
    <connection from=":gneJ25_0" to="gneE21" fromLane="0" toLane="0" dir="s" state="M"/>
    <connection from=":gneJ25_0" to="gneE21" fromLane="1" toLane="1" dir="s" state="M"/>
    <connection from=":gneJ26_0" to="gneE22" fromLane="0" toLane="0" dir="s" state="M"/>
    <connection from=":gneJ26_0" to="gneE22" fromLane="1" toLane="1" dir="s" state="M"/>
    <connection from=":gneJ27_0" to="gneE23" fromLane="0" toLane="0" dir="s" state="M"/>
    <connection from=":gneJ27_0" to="gneE23" fromLane="1" toLane="1" dir="s" state="M"/>
    <connection from=":gneJ28_0" to="gneE24" fromLane="0" toLane="0" dir="s" state="M"/>
    <connection from=":gneJ28_0" to="gneE24" fromLane="1" toLane="1" dir="s" state="M"/>
    <connection from=":gneJ29_0" to="gneE25" fromLane="0" toLane="0" dir="s" state="M"/>
    <connection from=":gneJ29_0" to="gneE25" fromLane="1" toLane="1" dir="s" state="M"/>
    <connection from=":gneJ30_0" to="gneE26" fromLane="0" toLane="0" dir="s" state="M"/>
    <connection from=":gneJ30_0" to="gneE26" fromLane="1" toLane="1" dir="s" state="M"/>
    <connection from=":gneJ31_0" to="gneE27" fromLane="0" toLane="0" dir="s" state="M"/>
    <connection from=":gneJ31_0" to="gneE27" fromLane="1" toLane="1" dir="s" state="M"/>
    <connection from=":gneJ32_0" to="gneE28" fromLane="0" toLane="0" dir="s" state="M"/>
    <connection from=":gneJ32_0" to="gneE28" fromLane="1" toLane="1" dir="s" state="M"/>
    <connection from=":gneJ33_0" to="gneE29" fromLane="0" toLane="0" dir="s" state="M"/>
    <connection from=":gneJ33_0" to="gneE29" fromLane="1" toLane="1" dir="s" state="M"/>
    <connection from=":gneJ34_0" to="gneE30" fromLane="0" toLane="0" dir="s" state="M"/>
    <connection from=":gneJ34_0" to="gneE30" fromLane="1" toLane="1" dir="s" state="M"/>
    <connection from=":gneJ35_0" to="gneE31" fromLane="0" toLane="0" dir="s" state="M"/>
    <connection from=":gneJ35_0" to="gneE31" fromLane="1" toLane="1" dir="s" state="M"/>
    <connection from=":gneJ36_0" to="gneE32" fromLane="0" toLane="0" dir="s" state="M"/>
    <connection from=":gneJ36_0" to="gneE32" fromLane="1" toLane="1" dir="s" state="M"/>
    <connection from=":gneJ37_0" to="gneE33" fromLane="0" toLane="0" dir="s" state="M"/>
    <connection from=":gneJ37_0" to="gneE33" fromLane="1" toLane="1" dir="s" state="M"/>

</net>